
     RDKit          3D

 27 28  0  0  0  0  0  0  0  0999 V2000
   -3.2818    1.4914   -2.2857 N   0  0  0  0  0  0  0  0  0  0  0  0
   -2.8711    0.5502   -1.3988 C   0  0  0  0  0  0  0  0  0  0  0  0
   -1.5975    0.4036   -1.1471 N   0  0  0  0  0  0  0  0  0  0  0  0
   -1.3437   -0.5706   -0.2399 C   0  0  0  0  0  0  0  0  0  0  0  0
   -2.2399   -1.3886    0.4107 C   0  0  0  0  0  0  0  0  0  0  0  0
   -1.6030   -2.2642    1.2523 N   0  0  0  0  0  0  0  0  0  0  0  0
   -0.3223   -1.9802    1.1096 C   0  0  0  0  0  0  0  0  0  0  0  0
   -0.1163   -0.9579    0.2191 N   0  0  0  0  0  0  0  0  0  0  0  0
    1.1518   -0.4021   -0.2102 C   0  0  0  0  0  0  0  0  0  0  0  0
    2.1678   -0.7404    0.7343 O   0  0  0  0  0  0  0  0  0  0  0  0
    3.4259   -0.1535    0.4067 C   0  0  0  0  0  0  0  0  0  0  0  0
    3.5599    1.2510    0.9905 C   0  0  0  0  0  0  0  0  0  0  0  0
    4.8117    1.8116    0.6203 O   0  0  0  0  0  0  0  0  0  0  0  0
   -3.6452   -1.2177    0.1146 C   0  0  0  0  0  0  0  0  0  0  0  0
   -4.5681   -1.8722    0.5896 O   0  0  0  0  0  0  0  0  0  0  0  0
   -3.8659   -0.1998   -0.8042 N   0  0  0  0  0  0  0  0  0  0  0  0
   -2.5385    2.1411   -2.5233 H   0  0  0  0  0  0  0  0  0  0  0  0
   -4.1527    1.9608   -2.0745 H   0  0  0  0  0  0  0  0  0  0  0  0
    0.4921   -2.4783    1.6211 H   0  0  0  0  0  0  0  0  0  0  0  0
    1.0353    0.6838   -0.2791 H   0  0  0  0  0  0  0  0  0  0  0  0
    1.3817   -0.8347   -1.1896 H   0  0  0  0  0  0  0  0  0  0  0  0
    4.2078   -0.7901    0.8363 H   0  0  0  0  0  0  0  0  0  0  0  0
    3.5959   -0.1544   -0.6772 H   0  0  0  0  0  0  0  0  0  0  0  0
    2.7627    1.9075    0.6295 H   0  0  0  0  0  0  0  0  0  0  0  0
    3.4897    1.2141    2.0829 H   0  0  0  0  0  0  0  0  0  0  0  0
    4.8892    2.6660    1.0799 H   0  0  0  0  0  0  0  0  0  0  0  0
   -4.8254   -0.0763   -1.0786 H   0  0  0  0  0  0  0  0  0  0  0  0
  1  2  1  0
  2  3  2  0
  3  4  1  0
  4  5  2  0
  5  6  1  0
  6  7  2  0
  7  8  1  0
  8  9  1  0
  9 10  1  0
 10 11  1  0
 11 12  1  0
 12 13  1  0
  5 14  1  0
 14 15  2  0
 14 16  1  0
 16  2  1  0
  8  4  1  0
  1 17  1  0
  1 18  1  0
  7 19  1  0
  9 20  1  0
  9 21  1  0
 11 22  1  0
 11 23  1  0
 12 24  1  0
 12 25  1  0
 13 26  1  0
 16 27  1  0
M  END
