
     RDKit          3D

 27 26  0  0  0  0  0  0  0  0999 V2000
   -2.3100    2.0861   -2.3234 N   0  0  0  0  0  0  0  0  0  0  0  0
   -2.2505    0.8857   -1.5014 C   0  0  0  0  0  0  0  0  0  0  0  0
   -0.9437    0.8504   -0.7069 C   0  0  0  0  0  0  0  0  0  0  0  0
   -0.8983   -0.3652    0.2193 C   0  0  0  0  0  0  0  0  0  0  0  0
    0.4850   -0.6875    0.7918 C   0  0  0  0  0  0  0  0  0  0  0  0
    0.2316   -1.7216    1.8179 O   0  0  0  0  0  0  0  0  0  0  0  0
    1.6259   -1.5154   -0.3777 P   0  0  0  0  0  0  0  0  0  0  0  0
    3.0657   -1.1577   -0.1879 O   0  0  0  0  0  0  0  0  0  0  0  0
    1.3204   -3.0773   -0.1298 O   0  0  0  0  0  0  0  0  0  0  0  0
    1.0522   -1.3398   -1.8604 O   0  0  0  0  0  0  0  0  0  0  0  0
    1.3123    0.6880    1.6660 P   0  0  0  0  0  0  0  0  0  0  0  0
    1.4370    2.0173    1.0082 O   0  0  0  0  0  0  0  0  0  0  0  0
    2.7012    0.1022    2.2171 O   0  0  0  0  0  0  0  0  0  0  0  0
    0.4941    0.7522    3.0550 O   0  0  0  0  0  0  0  0  0  0  0  0
   -3.1453    2.0609   -2.9065 H   0  0  0  0  0  0  0  0  0  0  0  0
   -1.5153    2.1106   -2.9616 H   0  0  0  0  0  0  0  0  0  0  0  0
   -2.3250    0.0014   -2.1439 H   0  0  0  0  0  0  0  0  0  0  0  0
   -3.1074    0.8771   -0.8194 H   0  0  0  0  0  0  0  0  0  0  0  0
   -0.8671    1.7635   -0.1052 H   0  0  0  0  0  0  0  0  0  0  0  0
   -0.0927    0.8483   -1.3958 H   0  0  0  0  0  0  0  0  0  0  0  0
   -1.2696   -1.2531   -0.3084 H   0  0  0  0  0  0  0  0  0  0  0  0
   -1.6027   -0.1969    1.0446 H   0  0  0  0  0  0  0  0  0  0  0  0
    0.1145   -1.2199    2.6583 H   0  0  0  0  0  0  0  0  0  0  0  0
    0.7535   -3.1959    0.6682 H   0  0  0  0  0  0  0  0  0  0  0  0
    1.6334   -1.7634   -2.5226 H   0  0  0  0  0  0  0  0  0  0  0  0
    3.2866   -0.2614    1.5055 H   0  0  0  0  0  0  0  0  0  0  0  0
    0.8140    1.5008    3.5991 H   0  0  0  0  0  0  0  0  0  0  0  0
  1  2  1  0
  2  3  1  0
  3  4  1  0
  4  5  1  0
  5  6  1  0
  5  7  1  0
  7  8  2  0
  7  9  1  0
  7 10  1  0
  5 11  1  0
 11 12  2  0
 11 13  1  0
 11 14  1  0
  1 15  1  0
  1 16  1  0
  2 17  1  0
  2 18  1  0
  3 19  1  0
  3 20  1  0
  4 21  1  0
  4 22  1  0
  6 23  1  0
  9 24  1  0
 10 25  1  0
 13 26  1  0
 14 27  1  0
M  END
