
     RDKit          3D

 14 15  0  0  0  0  0  0  0  0999 V2000
    1.2235    2.3166   -0.3575 O   0  0  0  0  0  0  0  0  0  0  0  0
    0.9475    1.1348   -0.1943 C   0  0  0  0  0  0  0  0  0  0  0  0
    1.9077    0.1405   -0.1188 N   0  0  0  0  0  0  0  0  0  0  0  0
    1.6069   -1.1981    0.0655 C   0  0  0  0  0  0  0  0  0  0  0  0
    0.4099   -1.6883    0.1894 N   0  0  0  0  0  0  0  0  0  0  0  0
   -0.5472   -0.7328    0.1186 C   0  0  0  0  0  0  0  0  0  0  0  0
   -1.8923   -0.9334    0.2137 N   0  0  0  0  0  0  0  0  0  0  0  0
   -2.6088    0.2107    0.1067 N   0  0  0  0  0  0  0  0  0  0  0  0
   -1.6725    1.1561   -0.0610 C   0  0  0  0  0  0  0  0  0  0  0  0
   -0.3816    0.6178   -0.0602 C   0  0  0  0  0  0  0  0  0  0  0  0
    2.8651    0.4455   -0.2069 H   0  0  0  0  0  0  0  0  0  0  0  0
    2.4971   -1.8463    0.1009 H   0  0  0  0  0  0  0  0  0  0  0  0
   -2.3787   -1.8118    0.3496 H   0  0  0  0  0  0  0  0  0  0  0  0
   -1.9766    2.1889   -0.1754 H   0  0  0  0  0  0  0  0  0  0  0  0
  1  2  2  0
  2  3  1  0
  3  4  1  0
  4  5  2  0
  5  6  1  0
  6  7  1  0
  7  8  1  0
  8  9  2  0
  9 10  1  0
 10  2  1  0
 10  6  2  0
  3 11  1  0
  4 12  1  0
  7 13  1  0
  9 14  1  0
M  END
