
     RDKit          3D

 35 38  0  0  0  0  0  0  0  0999 V2000
   -4.1049    0.4896   -0.6548 C   0  0  0  0  0  0  0  0  0  0  0  0
   -3.4019   -0.6376    0.0016 C   0  0  0  0  0  0  0  0  0  0  0  0
   -3.8636   -1.8711    0.0470 N   0  0  0  0  0  0  0  0  0  0  0  0
   -2.8998   -2.6713    0.5929 N   0  0  0  0  0  0  0  0  0  0  0  0
   -1.8610   -1.9164    0.8781 C   0  0  0  0  0  0  0  0  0  0  0  0
   -0.6016   -2.3350    1.5327 C   0  0  0  0  0  0  0  0  0  0  0  0
    0.5358   -2.0506    0.6691 N   0  0  0  0  0  0  0  0  0  0  0  0
    0.8307   -0.8340    0.3590 C   0  0  0  0  0  0  0  0  0  0  0  0
    1.9859   -0.6380   -0.5775 C   0  0  0  0  0  0  0  0  0  0  0  0
    1.9626    0.3578   -1.5626 C   0  0  0  0  0  0  0  0  0  0  0  0
    3.0532    0.5150   -2.4208 C   0  0  0  0  0  0  0  0  0  0  0  0
    4.1606   -0.3253   -2.3059 C   0  0  0  0  0  0  0  0  0  0  0  0
    4.1787   -1.3305   -1.3396 C   0  0  0  0  0  0  0  0  0  0  0  0
    3.0915   -1.4914   -0.4795 C   0  0  0  0  0  0  0  0  0  0  0  0
    0.1067    0.3795    0.8615 C   0  0  0  0  0  0  0  0  0  0  0  0
    0.8968    1.4639    1.2840 C   0  0  0  0  0  0  0  0  0  0  0  0
    0.3008    2.6642    1.6601 C   0  0  0  0  0  0  0  0  0  0  0  0
    1.2801    3.9860    2.1594 Cl  0  0  0  0  0  0  0  0  0  0  0  0
   -1.0823    2.8008    1.6324 C   0  0  0  0  0  0  0  0  0  0  0  0
   -1.8817    1.7234    1.2415 C   0  0  0  0  0  0  0  0  0  0  0  0
   -1.2974    0.5032    0.8614 C   0  0  0  0  0  0  0  0  0  0  0  0
   -2.1348   -0.6027    0.5632 N   0  0  0  0  0  0  0  0  0  0  0  0
   -4.7914    0.1081   -1.4183 H   0  0  0  0  0  0  0  0  0  0  0  0
   -4.7004    1.0504    0.0711 H   0  0  0  0  0  0  0  0  0  0  0  0
   -3.4094    1.1687   -1.1563 H   0  0  0  0  0  0  0  0  0  0  0  0
   -0.4833   -1.8638    2.5158 H   0  0  0  0  0  0  0  0  0  0  0  0
   -0.6315   -3.4154    1.7136 H   0  0  0  0  0  0  0  0  0  0  0  0
    1.1002    1.0060   -1.6884 H   0  0  0  0  0  0  0  0  0  0  0  0
    3.0364    1.2864   -3.1869 H   0  0  0  0  0  0  0  0  0  0  0  0
    5.0065   -0.2049   -2.9787 H   0  0  0  0  0  0  0  0  0  0  0  0
    5.0357   -1.9947   -1.2600 H   0  0  0  0  0  0  0  0  0  0  0  0
    3.1082   -2.2848    0.2645 H   0  0  0  0  0  0  0  0  0  0  0  0
    1.9816    1.3787    1.3151 H   0  0  0  0  0  0  0  0  0  0  0  0
   -1.5482    3.7349    1.9393 H   0  0  0  0  0  0  0  0  0  0  0  0
   -2.9589    1.8510    1.3088 H   0  0  0  0  0  0  0  0  0  0  0  0
  1  2  1  0
  2  3  2  0
  3  4  1  0
  4  5  2  0
  5  6  1  0
  6  7  1  0
  7  8  2  0
  8  9  1  0
  9 10  2  0
 10 11  1  0
 11 12  2  0
 12 13  1  0
 13 14  2  0
  8 15  1  0
 15 16  2  0
 16 17  1  0
 17 18  1  0
 17 19  2  0
 19 20  1  0
 20 21  2  0
 21 22  1  0
 22  2  1  0
 22  5  1  0
 14  9  1  0
 21 15  1  0
  1 23  1  0
  1 24  1  0
  1 25  1  0
  6 26  1  0
  6 27  1  0
 10 28  1  0
 11 29  1  0
 12 30  1  0
 13 31  1  0
 14 32  1  0
 16 33  1  0
 19 34  1  0
 20 35  1  0
M  END
