
     RDKit          3D

 60 62  0  0  0  0  0  0  0  0999 V2000
   -8.3231   -2.5337   -1.1185 C   0  0  0  0  0  0  0  0  0  0  0  0
   -7.4450   -1.4837   -1.7804 C   0  0  0  0  0  0  0  0  0  0  0  0
   -6.4872   -0.8432   -0.7767 C   0  0  0  0  0  0  0  0  0  0  0  0
   -5.6059    0.2139   -1.4448 C   0  0  0  0  0  0  0  0  0  0  0  0
   -4.6667    0.8295   -0.4675 C   0  0  0  0  0  0  0  0  0  0  0  0
   -5.1399    1.9214    0.1936 O   0  0  0  0  0  0  0  0  0  0  0  0
   -4.1705    2.3233    1.0539 C   0  0  0  0  0  0  0  0  0  0  0  0
   -4.2765    3.4032    1.9281 C   0  0  0  0  0  0  0  0  0  0  0  0
   -3.1803    3.6471    2.7589 C   0  0  0  0  0  0  0  0  0  0  0  0
   -2.0469    2.8345    2.7089 C   0  0  0  0  0  0  0  0  0  0  0  0
   -1.9707    1.7543    1.8168 C   0  0  0  0  0  0  0  0  0  0  0  0
   -3.0558    1.4983    0.9519 C   0  0  0  0  0  0  0  0  0  0  0  0
   -3.3685    0.5400   -0.0701 C   0  0  0  0  0  0  0  0  0  0  0  0
   -2.5795   -0.5598   -0.6046 C   0  0  0  0  0  0  0  0  0  0  0  0
   -3.0896   -1.6033   -1.0039 O   0  0  0  0  0  0  0  0  0  0  0  0
   -1.1027   -0.4307   -0.6882 C   0  0  0  0  0  0  0  0  0  0  0  0
   -0.3181   -1.5590   -0.4252 C   0  0  0  0  0  0  0  0  0  0  0  0
    1.0764   -1.4774   -0.5050 C   0  0  0  0  0  0  0  0  0  0  0  0
    2.1542   -3.2449   -0.1711 I   0  0  0  0  0  0  0  0  0  0  0  0
    1.6974   -0.2623   -0.8321 C   0  0  0  0  0  0  0  0  0  0  0  0
    3.0634   -0.1798   -0.9202 O   0  0  0  0  0  0  0  0  0  0  0  0
    3.6456    0.2429    0.3265 C   0  0  0  0  0  0  0  0  0  0  0  0
    5.1100    0.6679    0.0942 C   0  0  0  0  0  0  0  0  0  0  0  0
    6.0358   -0.4009   -0.3383 N   0  0  0  0  0  0  0  0  0  0  0  0
    6.1933   -1.4887    0.6372 C   0  0  0  0  0  0  0  0  0  0  0  0
    6.8558   -1.1214    1.9626 C   0  0  0  0  0  0  0  0  0  0  0  0
    7.3056    0.1850   -0.7983 C   0  0  0  0  0  0  0  0  0  0  0  0
    8.2521   -0.8204   -1.4486 C   0  0  0  0  0  0  0  0  0  0  0  0
    0.8994    0.8447   -1.1655 C   0  0  0  0  0  0  0  0  0  0  0  0
    1.7139    2.6602   -1.8381 I   0  0  0  0  0  0  0  0  0  0  0  0
   -0.4959    0.7640   -1.0901 C   0  0  0  0  0  0  0  0  0  0  0  0
   -7.7156   -3.3294   -0.6729 H   0  0  0  0  0  0  0  0  0  0  0  0
   -8.9407   -2.0897   -0.3301 H   0  0  0  0  0  0  0  0  0  0  0  0
   -8.9906   -2.9893   -1.8580 H   0  0  0  0  0  0  0  0  0  0  0  0
   -8.0824   -0.7142   -2.2324 H   0  0  0  0  0  0  0  0  0  0  0  0
   -6.8752   -1.9515   -2.5921 H   0  0  0  0  0  0  0  0  0  0  0  0
   -7.0613   -0.3852    0.0393 H   0  0  0  0  0  0  0  0  0  0  0  0
   -5.8599   -1.6202   -0.3211 H   0  0  0  0  0  0  0  0  0  0  0  0
   -6.2370    0.9966   -1.8845 H   0  0  0  0  0  0  0  0  0  0  0  0
   -5.0422   -0.2318   -2.2726 H   0  0  0  0  0  0  0  0  0  0  0  0
   -5.1714    4.0131    1.9619 H   0  0  0  0  0  0  0  0  0  0  0  0
   -3.2172    4.4773    3.4615 H   0  0  0  0  0  0  0  0  0  0  0  0
   -1.2119    3.0376    3.3764 H   0  0  0  0  0  0  0  0  0  0  0  0
   -1.0836    1.1285    1.8147 H   0  0  0  0  0  0  0  0  0  0  0  0
   -0.8056   -2.4996   -0.1714 H   0  0  0  0  0  0  0  0  0  0  0  0
    3.5746   -0.5544    1.0729 H   0  0  0  0  0  0  0  0  0  0  0  0
    3.1043    1.1099    0.7273 H   0  0  0  0  0  0  0  0  0  0  0  0
    5.0843    1.4343   -0.6914 H   0  0  0  0  0  0  0  0  0  0  0  0
    5.4881    1.1568    0.9994 H   0  0  0  0  0  0  0  0  0  0  0  0
    6.7587   -2.3091    0.1788 H   0  0  0  0  0  0  0  0  0  0  0  0
    5.2178   -1.9379    0.8504 H   0  0  0  0  0  0  0  0  0  0  0  0
    6.9135   -2.0085    2.6023 H   0  0  0  0  0  0  0  0  0  0  0  0
    7.8772   -0.7558    1.8196 H   0  0  0  0  0  0  0  0  0  0  0  0
    6.2856   -0.3624    2.5069 H   0  0  0  0  0  0  0  0  0  0  0  0
    7.8249    0.7043    0.0167 H   0  0  0  0  0  0  0  0  0  0  0  0
    7.0872    0.9434   -1.5616 H   0  0  0  0  0  0  0  0  0  0  0  0
    7.7440   -1.3925   -2.2336 H   0  0  0  0  0  0  0  0  0  0  0  0
    9.0942   -0.2932   -1.9111 H   0  0  0  0  0  0  0  0  0  0  0  0
    8.6679   -1.5204   -0.7169 H   0  0  0  0  0  0  0  0  0  0  0  0
   -1.1079    1.6220   -1.3612 H   0  0  0  0  0  0  0  0  0  0  0  0
  1  2  1  0
  2  3  1  0
  3  4  1  0
  4  5  1  0
  5  6  1  0
  6  7  1  0
  7  8  2  0
  8  9  1  0
  9 10  2  0
 10 11  1  0
 11 12  2  0
 12 13  1  0
 13 14  1  0
 14 15  2  0
 14 16  1  0
 16 17  1  0
 17 18  2  0
 18 19  1  0
 18 20  1  0
 20 21  1  0
 21 22  1  0
 22 23  1  0
 23 24  1  0
 24 25  1  0
 25 26  1  0
 24 27  1  0
 27 28  1  0
 20 29  2  0
 29 30  1  0
 29 31  1  0
 13  5  2  0
 31 16  2  0
 12  7  1  0
  1 32  1  0
  1 33  1  0
  1 34  1  0
  2 35  1  0
  2 36  1  0
  3 37  1  0
  3 38  1  0
  4 39  1  0
  4 40  1  0
  8 41  1  0
  9 42  1  0
 10 43  1  0
 11 44  1  0
 17 45  1  0
 22 46  1  0
 22 47  1  0
 23 48  1  0
 23 49  1  0
 25 50  1  0
 25 51  1  0
 26 52  1  0
 26 53  1  0
 26 54  1  0
 27 55  1  0
 27 56  1  0
 28 57  1  0
 28 58  1  0
 28 59  1  0
 31 60  1  0
M  END
