
     RDKit          3D

 44 46  0  0  0  0  0  0  0  0999 V2000
    3.9070   -1.9273    0.3569 C   0  0  0  0  0  0  0  0  0  0  0  0
    4.1999   -0.5302    0.0460 N   0  0  0  0  0  0  0  0  0  0  0  0
    4.8776   -0.4120   -1.2415 C   0  0  0  0  0  0  0  0  0  0  0  0
    3.0092    0.3301    0.1440 C   0  0  0  0  0  0  0  0  0  0  0  0
    1.8709    0.0687   -0.8595 C   0  0  0  0  0  0  0  0  0  0  0  0
    0.6994    0.9879   -0.6091 C   0  0  0  0  0  0  0  0  0  0  0  0
   -0.5231    0.6666   -0.1260 C   0  0  0  0  0  0  0  0  0  0  0  0
   -1.5568    1.7365   -0.0769 C   0  0  0  0  0  0  0  0  0  0  0  0
   -1.2445    2.9377    0.5938 C   0  0  0  0  0  0  0  0  0  0  0  0
   -2.1681    3.9778    0.6933 C   0  0  0  0  0  0  0  0  0  0  0  0
   -3.4296    3.8317    0.1349 C   0  0  0  0  0  0  0  0  0  0  0  0
   -3.7648    2.6443   -0.5145 C   0  0  0  0  0  0  0  0  0  0  0  0
   -2.8439    1.5799   -0.6349 C   0  0  0  0  0  0  0  0  0  0  0  0
   -3.3662    0.3313   -1.3272 C   0  0  0  0  0  0  0  0  0  0  0  0
   -2.3858   -0.7598   -1.7703 C   0  0  0  0  0  0  0  0  0  0  0  0
   -1.7358   -1.4492   -0.5967 C   0  0  0  0  0  0  0  0  0  0  0  0
   -2.0313   -2.7842   -0.2890 C   0  0  0  0  0  0  0  0  0  0  0  0
   -1.4460   -3.3986    0.8193 C   0  0  0  0  0  0  0  0  0  0  0  0
   -0.5679   -2.6848    1.6324 C   0  0  0  0  0  0  0  0  0  0  0  0
   -0.2666   -1.3561    1.3339 C   0  0  0  0  0  0  0  0  0  0  0  0
   -0.8369   -0.7374    0.2136 C   0  0  0  0  0  0  0  0  0  0  0  0
    3.4127   -2.0135    1.3309 H   0  0  0  0  0  0  0  0  0  0  0  0
    4.8373   -2.5022    0.4275 H   0  0  0  0  0  0  0  0  0  0  0  0
    3.2731   -2.4057   -0.3971 H   0  0  0  0  0  0  0  0  0  0  0  0
    5.8340   -0.9465   -1.2173 H   0  0  0  0  0  0  0  0  0  0  0  0
    4.2860   -0.8180   -2.0690 H   0  0  0  0  0  0  0  0  0  0  0  0
    5.1110    0.6354   -1.4626 H   0  0  0  0  0  0  0  0  0  0  0  0
    3.3355    1.3747    0.0468 H   0  0  0  0  0  0  0  0  0  0  0  0
    2.6166    0.2546    1.1669 H   0  0  0  0  0  0  0  0  0  0  0  0
    2.2210    0.2559   -1.8817 H   0  0  0  0  0  0  0  0  0  0  0  0
    1.5659   -0.9809   -0.8338 H   0  0  0  0  0  0  0  0  0  0  0  0
    0.8921    2.0183   -0.9083 H   0  0  0  0  0  0  0  0  0  0  0  0
   -0.2695    3.0656    1.0603 H   0  0  0  0  0  0  0  0  0  0  0  0
   -1.9025    4.8936    1.2138 H   0  0  0  0  0  0  0  0  0  0  0  0
   -4.1583    4.6340    0.2132 H   0  0  0  0  0  0  0  0  0  0  0  0
   -4.7668    2.5437   -0.9288 H   0  0  0  0  0  0  0  0  0  0  0  0
   -3.8959    0.6592   -2.2322 H   0  0  0  0  0  0  0  0  0  0  0  0
   -4.1188   -0.1179   -0.6644 H   0  0  0  0  0  0  0  0  0  0  0  0
   -2.9369   -1.4999   -2.3648 H   0  0  0  0  0  0  0  0  0  0  0  0
   -1.6178   -0.3541   -2.4409 H   0  0  0  0  0  0  0  0  0  0  0  0
   -2.7243   -3.3517   -0.9053 H   0  0  0  0  0  0  0  0  0  0  0  0
   -1.6827   -4.4333    1.0535 H   0  0  0  0  0  0  0  0  0  0  0  0
   -0.1208   -3.1605    2.5011 H   0  0  0  0  0  0  0  0  0  0  0  0
    0.4124   -0.8036    1.9781 H   0  0  0  0  0  0  0  0  0  0  0  0
  1  2  1  0
  2  3  1  0
  2  4  1  0
  4  5  1  0
  5  6  1  0
  6  7  2  3
  7  8  1  0
  8  9  2  0
  9 10  1  0
 10 11  2  0
 11 12  1  0
 12 13  2  0
 13 14  1  0
 14 15  1  0
 15 16  1  0
 16 17  2  0
 17 18  1  0
 18 19  2  0
 19 20  1  0
 20 21  2  0
 21  7  1  0
 13  8  1  0
 21 16  1  0
  1 22  1  0
  1 23  1  0
  1 24  1  0
  3 25  1  0
  3 26  1  0
  3 27  1  0
  4 28  1  0
  4 29  1  0
  5 30  1  0
  5 31  1  0
  6 32  1  0
  9 33  1  0
 10 34  1  0
 11 35  1  0
 12 36  1  0
 14 37  1  0
 14 38  1  0
 15 39  1  0
 15 40  1  0
 17 41  1  0
 18 42  1  0
 19 43  1  0
 20 44  1  0
M  END
