
     RDKit          3D

 53 54  0  0  0  0  0  0  0  0999 V2000
    0.4122    4.6111   -0.5354 C   0  0  0  0  0  0  0  0  0  0  0  0
    0.6310    3.6662    0.6303 C   0  0  0  0  0  0  0  0  0  0  0  0
    0.4218    2.3285    0.1665 O   0  0  0  0  0  0  0  0  0  0  0  0
    0.6001    1.3814    1.1190 C   0  0  0  0  0  0  0  0  0  0  0  0
    0.8962    1.5688    2.2890 O   0  0  0  0  0  0  0  0  0  0  0  0
    0.3809    0.0508    0.5179 C   0  0  0  0  0  0  0  0  0  0  0  0
    1.3398   -0.9004    0.5936 C   0  0  0  0  0  0  0  0  0  0  0  0
    2.6925   -0.6660    1.2446 C   0  0  0  0  0  0  0  0  0  0  0  0
    3.3843    0.4092    0.6081 O   0  0  0  0  0  0  0  0  0  0  0  0
    4.0106    0.0297   -0.6207 C   0  0  0  0  0  0  0  0  0  0  0  0
    4.6312    1.2754   -1.2667 C   0  0  0  0  0  0  0  0  0  0  0  0
    5.5768    1.9505   -0.3702 N   0  0  0  0  0  0  0  0  0  0  0  0
    1.1181   -2.1413    0.0063 N   0  0  0  0  0  0  0  0  0  0  0  0
    0.0001   -2.4555   -0.7533 C   0  0  0  0  0  0  0  0  0  0  0  0
    0.0292   -3.7951   -1.4434 C   0  0  0  0  0  0  0  0  0  0  0  0
   -1.0031   -1.5560   -0.8647 C   0  0  0  0  0  0  0  0  0  0  0  0
   -2.2042   -1.7973   -1.6861 C   0  0  0  0  0  0  0  0  0  0  0  0
   -2.5386   -1.0853   -2.6187 O   0  0  0  0  0  0  0  0  0  0  0  0
   -2.8777   -2.8731   -1.2074 O   0  0  0  0  0  0  0  0  0  0  0  0
   -4.1026   -3.1340   -1.8924 C   0  0  0  0  0  0  0  0  0  0  0  0
   -0.9466   -0.1886   -0.1892 C   0  0  0  0  0  0  0  0  0  0  0  0
   -2.1247   -0.0007    0.7756 C   0  0  0  0  0  0  0  0  0  0  0  0
   -2.2563   -0.8710    1.8800 C   0  0  0  0  0  0  0  0  0  0  0  0
   -3.3124   -0.7409    2.7835 C   0  0  0  0  0  0  0  0  0  0  0  0
   -4.2590    0.2615    2.6058 C   0  0  0  0  0  0  0  0  0  0  0  0
   -4.1481    1.1338    1.5247 C   0  0  0  0  0  0  0  0  0  0  0  0
   -3.0911    1.0082    0.6149 C   0  0  0  0  0  0  0  0  0  0  0  0
   -3.0459    2.1446   -0.6851 Cl  0  0  0  0  0  0  0  0  0  0  0  0
    1.0972    4.3757   -1.3571 H   0  0  0  0  0  0  0  0  0  0  0  0
    0.5689    5.6497   -0.2305 H   0  0  0  0  0  0  0  0  0  0  0  0
   -0.6041    4.5082   -0.9298 H   0  0  0  0  0  0  0  0  0  0  0  0
    1.6557    3.7717    1.0040 H   0  0  0  0  0  0  0  0  0  0  0  0
   -0.0804    3.8951    1.4321 H   0  0  0  0  0  0  0  0  0  0  0  0
    3.3145   -1.5693    1.2294 H   0  0  0  0  0  0  0  0  0  0  0  0
    2.5564   -0.4071    2.3004 H   0  0  0  0  0  0  0  0  0  0  0  0
    4.7854   -0.7173   -0.4154 H   0  0  0  0  0  0  0  0  0  0  0  0
    3.2745   -0.4002   -1.3081 H   0  0  0  0  0  0  0  0  0  0  0  0
    5.1421    1.0007   -2.1952 H   0  0  0  0  0  0  0  0  0  0  0  0
    3.8386    1.9905   -1.5156 H   0  0  0  0  0  0  0  0  0  0  0  0
    5.0619    2.1631    0.4907 H   0  0  0  0  0  0  0  0  0  0  0  0
    6.2945    1.2886   -0.0786 H   0  0  0  0  0  0  0  0  0  0  0  0
    1.8824   -2.8114    0.0104 H   0  0  0  0  0  0  0  0  0  0  0  0
   -0.7243   -3.8948   -2.2288 H   0  0  0  0  0  0  0  0  0  0  0  0
   -0.1261   -4.5960   -0.7132 H   0  0  0  0  0  0  0  0  0  0  0  0
    1.0024   -3.9528   -1.9214 H   0  0  0  0  0  0  0  0  0  0  0  0
   -3.8999   -3.4578   -2.9183 H   0  0  0  0  0  0  0  0  0  0  0  0
   -4.6196   -3.9423   -1.3678 H   0  0  0  0  0  0  0  0  0  0  0  0
   -4.7482   -2.2500   -1.8860 H   0  0  0  0  0  0  0  0  0  0  0  0
   -0.9952    0.5410   -1.0057 H   0  0  0  0  0  0  0  0  0  0  0  0
   -1.5268   -1.6631    2.0454 H   0  0  0  0  0  0  0  0  0  0  0  0
   -3.3915   -1.4217    3.6278 H   0  0  0  0  0  0  0  0  0  0  0  0
   -5.0808    0.3676    3.3095 H   0  0  0  0  0  0  0  0  0  0  0  0
   -4.8917    1.9171    1.3956 H   0  0  0  0  0  0  0  0  0  0  0  0
  1  2  1  0
  2  3  1  0
  3  4  1  0
  4  5  2  0
  4  6  1  0
  6  7  2  0
  7  8  1  0
  8  9  1  0
  9 10  1  0
 10 11  1  0
 11 12  1  0
  7 13  1  0
 13 14  1  0
 14 15  1  0
 14 16  2  0
 16 17  1  0
 17 18  2  0
 17 19  1  0
 19 20  1  0
 16 21  1  0
 21 22  1  0
 22 23  2  0
 23 24  1  0
 24 25  2  0
 25 26  1  0
 26 27  2  0
 27 28  1  0
 21  6  1  0
 27 22  1  0
  1 29  1  0
  1 30  1  0
  1 31  1  0
  2 32  1  0
  2 33  1  0
  8 34  1  0
  8 35  1  0
 10 36  1  0
 10 37  1  0
 11 38  1  0
 11 39  1  0
 12 40  1  0
 12 41  1  0
 13 42  1  0
 15 43  1  0
 15 44  1  0
 15 45  1  0
 20 46  1  0
 20 47  1  0
 20 48  1  0
 21 49  1  0
 23 50  1  0
 24 51  1  0
 25 52  1  0
 26 53  1  0
M  END
