
     RDKit          3D

 44 46  0  0  0  0  0  0  0  0999 V2000
    4.6500   -1.3692   -0.7346 C   0  0  0  0  0  0  0  0  0  0  0  0
    3.4724   -0.5189   -0.2413 C   0  0  0  0  0  0  0  0  0  0  0  0
    3.1848    0.5678   -1.2917 C   0  0  0  0  0  0  0  0  0  0  0  0
    1.9738   -1.6061   -0.1454 S   0  0  0  0  0  0  0  0  0  0  0  0
    1.4274   -0.9659    1.4971 C   0  0  2  0  0  0  0  0  0  0  0  0
    0.2903    0.0938    1.5038 C   0  0  2  0  0  0  0  0  0  0  0  0
   -0.5737    0.1663    0.3065 N   0  0  0  0  0  0  0  0  0  0  0  0
   -1.5204   -0.7995    0.0332 C   0  0  0  0  0  0  0  0  0  0  0  0
   -1.8140   -1.6863    0.8313 O   0  0  0  0  0  0  0  0  0  0  0  0
   -2.1719   -0.6554   -1.3619 C   0  0  2  0  0  0  0  0  0  0  0  0
   -1.2232    0.0166   -2.2927 N   0  0  0  0  0  0  0  0  0  0  0  0
   -3.5005    0.0702   -1.2763 C   0  0  0  0  0  0  0  0  0  0  0  0
   -4.6887   -0.6704   -1.1529 C   0  0  0  0  0  0  0  0  0  0  0  0
   -5.9258   -0.0285   -1.0495 C   0  0  0  0  0  0  0  0  0  0  0  0
   -5.9787    1.3606   -1.0623 C   0  0  0  0  0  0  0  0  0  0  0  0
   -7.1635    2.0278   -0.9631 O   0  0  0  0  0  0  0  0  0  0  0  0
   -4.8179    2.1146   -1.1715 C   0  0  0  0  0  0  0  0  0  0  0  0
   -3.5819    1.4730   -1.2724 C   0  0  0  0  0  0  0  0  0  0  0  0
    1.4565    1.1100    1.5675 C   0  0  0  0  0  0  0  0  0  0  0  0
    1.6155    2.2896    1.3556 O   0  0  0  0  0  0  0  0  0  0  0  0
    2.3653    0.1224    1.8208 N   0  0  0  0  0  0  0  0  0  0  0  0
    3.6642    0.1002    1.1614 C   0  0  1  0  0  0  0  0  0  0  0  0
    4.6193   -0.6820    2.0596 C   0  0  0  0  0  0  0  0  0  0  0  0
    4.3483   -1.6140    2.8002 O   0  0  0  0  0  0  0  0  0  0  0  0
    5.8969   -0.2569    1.9522 O   0  0  0  0  0  0  0  0  0  0  0  0
    5.5662   -0.7696   -0.7848 H   0  0  0  0  0  0  0  0  0  0  0  0
    4.4692   -1.7614   -1.7429 H   0  0  0  0  0  0  0  0  0  0  0  0
    4.8478   -2.2287   -0.0843 H   0  0  0  0  0  0  0  0  0  0  0  0
    4.0338    1.2569   -1.3714 H   0  0  0  0  0  0  0  0  0  0  0  0
    3.0253    0.1359   -2.2872 H   0  0  0  0  0  0  0  0  0  0  0  0
    2.3018    1.1677   -1.0510 H   0  0  0  0  0  0  0  0  0  0  0  0
    1.3636   -1.7233    2.2836 H   0  0  0  0  0  0  0  0  0  0  0  0
   -0.3074    0.1043    2.4239 H   0  0  0  0  0  0  0  0  0  0  0  0
   -0.3532    0.7779   -0.4787 H   0  0  0  0  0  0  0  0  0  0  0  0
   -2.3277   -1.6686   -1.7534 H   0  0  0  0  0  0  0  0  0  0  0  0
   -0.4427   -0.6251   -2.4485 H   0  0  0  0  0  0  0  0  0  0  0  0
   -1.6926    0.0951   -3.1965 H   0  0  0  0  0  0  0  0  0  0  0  0
   -4.6566   -1.7583   -1.1257 H   0  0  0  0  0  0  0  0  0  0  0  0
   -6.8270   -0.6257   -0.9548 H   0  0  0  0  0  0  0  0  0  0  0  0
   -7.8764    1.3769   -0.8584 H   0  0  0  0  0  0  0  0  0  0  0  0
   -4.8722    3.1995   -1.1725 H   0  0  0  0  0  0  0  0  0  0  0  0
   -2.6812    2.0790   -1.3466 H   0  0  0  0  0  0  0  0  0  0  0  0
    4.0341    1.1315    1.1003 H   0  0  0  0  0  0  0  0  0  0  0  0
    6.3903   -0.8235    2.5839 H   0  0  0  0  0  0  0  0  0  0  0  0
  1  2  1  0
  2  3  1  0
  2  4  1  0
  4  5  1  0
  5  6  1  0
  6  7  1  0
  7  8  1  0
  8  9  2  0
  8 10  1  0
 10 11  1  0
 10 12  1  0
 12 13  1  0
 13 14  2  0
 14 15  1  0
 15 16  1  0
 15 17  2  0
 17 18  1  0
  6 19  1  0
 19 20  2  0
 19 21  1  0
 21 22  1  0
 22 23  1  0
 23 24  2  0
 23 25  1  0
 22  2  1  0
 21  5  1  0
 18 12  2  0
  1 26  1  0
  1 27  1  0
  1 28  1  0
  3 29  1  0
  3 30  1  0
  3 31  1  0
  5 32  1  1
  6 33  1  1
  7 34  1  0
 10 35  1  6
 11 36  1  0
 11 37  1  0
 13 38  1  0
 14 39  1  0
 16 40  1  0
 17 41  1  0
 18 42  1  0
 22 43  1  6
 25 44  1  0
M  END
