
     RDKit          3D

 59 63  0  0  0  0  0  0  0  0999 V2000
    9.8464    1.0059   -1.6846 C   0  0  0  0  0  0  0  0  0  0  0  0
    8.5552    1.4379   -2.0965 O   0  0  0  0  0  0  0  0  0  0  0  0
    7.4905    0.9642   -1.3822 C   0  0  0  0  0  0  0  0  0  0  0  0
    7.5506    0.1026   -0.2906 C   0  0  0  0  0  0  0  0  0  0  0  0
    6.3730   -0.3031    0.3505 C   0  0  0  0  0  0  0  0  0  0  0  0
    5.1149    0.1365   -0.0978 C   0  0  0  0  0  0  0  0  0  0  0  0
    3.9452   -0.3079    0.5907 N   0  0  0  0  0  0  0  0  0  0  0  0
    4.0822   -0.9184    1.7889 N   0  0  0  0  0  0  0  0  0  0  0  0
    2.8440   -1.0950    2.2889 C   0  0  0  0  0  0  0  0  0  0  0  0
    2.6993   -1.6924    3.6354 C   0  0  0  0  0  0  0  0  0  0  0  0
    1.4396   -1.9341    4.1026 N   0  0  0  0  0  0  0  0  0  0  0  0
    3.6520   -1.9860    4.3571 O   0  0  0  0  0  0  0  0  0  0  0  0
    1.8783   -0.6680    1.3353 C   0  0  0  0  0  0  0  0  0  0  0  0
    2.6139   -0.2315    0.2480 C   0  0  0  0  0  0  0  0  0  0  0  0
    1.9948    0.1937   -1.0260 C   0  0  0  0  0  0  0  0  0  0  0  0
    0.6089   -0.4649   -1.1362 C   0  0  0  0  0  0  0  0  0  0  0  0
   -0.1947   -0.3656    0.1001 N   0  0  0  0  0  0  0  0  0  0  0  0
   -1.6246   -0.2600   -0.0194 C   0  0  0  0  0  0  0  0  0  0  0  0
   -2.4089    0.2381    1.0254 C   0  0  0  0  0  0  0  0  0  0  0  0
   -3.8044    0.3589    0.9063 C   0  0  0  0  0  0  0  0  0  0  0  0
   -4.4769   -0.0165   -0.2635 C   0  0  0  0  0  0  0  0  0  0  0  0
   -5.9088    0.1252   -0.3980 N   0  0  0  0  0  0  0  0  0  0  0  0
   -6.6055    0.9469    0.5998 C   0  0  0  0  0  0  0  0  0  0  0  0
   -7.9710    1.4505    0.1615 C   0  0  0  0  0  0  0  0  0  0  0  0
   -8.7947    0.2829   -0.3330 C   0  0  0  0  0  0  0  0  0  0  0  0
   -8.0870   -0.3394   -1.5159 C   0  0  0  0  0  0  0  0  0  0  0  0
   -6.6384   -0.7162   -1.2549 C   0  0  0  0  0  0  0  0  0  0  0  0
   -6.1773   -1.6854   -1.8617 O   0  0  0  0  0  0  0  0  0  0  0  0
   -3.6875   -0.4974   -1.3134 C   0  0  0  0  0  0  0  0  0  0  0  0
   -2.2923   -0.6192   -1.1952 C   0  0  0  0  0  0  0  0  0  0  0  0
    0.4184   -0.6402    1.3500 C   0  0  0  0  0  0  0  0  0  0  0  0
   -0.1884   -0.8462    2.3971 O   0  0  0  0  0  0  0  0  0  0  0  0
    5.0636    1.0179   -1.1807 C   0  0  0  0  0  0  0  0  0  0  0  0
    6.2450    1.4204   -1.8171 C   0  0  0  0  0  0  0  0  0  0  0  0
   10.5817    1.4705   -2.3487 H   0  0  0  0  0  0  0  0  0  0  0  0
    9.9487   -0.0801   -1.7822 H   0  0  0  0  0  0  0  0  0  0  0  0
   10.0659    1.3346   -0.6633 H   0  0  0  0  0  0  0  0  0  0  0  0
    8.4924   -0.2742    0.0945 H   0  0  0  0  0  0  0  0  0  0  0  0
    6.4572   -0.9775    1.2029 H   0  0  0  0  0  0  0  0  0  0  0  0
    0.6025   -1.5918    3.6377 H   0  0  0  0  0  0  0  0  0  0  0  0
    1.3563   -2.2618    5.0534 H   0  0  0  0  0  0  0  0  0  0  0  0
    2.5865   -0.1063   -1.8959 H   0  0  0  0  0  0  0  0  0  0  0  0
    1.8802    1.2837   -1.0298 H   0  0  0  0  0  0  0  0  0  0  0  0
    0.0953    0.0212   -1.9721 H   0  0  0  0  0  0  0  0  0  0  0  0
    0.7185   -1.5336   -1.3613 H   0  0  0  0  0  0  0  0  0  0  0  0
   -1.9607    0.5717    1.9577 H   0  0  0  0  0  0  0  0  0  0  0  0
   -4.3353    0.7326    1.7767 H   0  0  0  0  0  0  0  0  0  0  0  0
   -5.9988    1.8287    0.8357 H   0  0  0  0  0  0  0  0  0  0  0  0
   -6.7140    0.3382    1.5063 H   0  0  0  0  0  0  0  0  0  0  0  0
   -8.4738    1.9441    1.0004 H   0  0  0  0  0  0  0  0  0  0  0  0
   -7.8586    2.1956   -0.6358 H   0  0  0  0  0  0  0  0  0  0  0  0
   -8.9209   -0.4567    0.4668 H   0  0  0  0  0  0  0  0  0  0  0  0
   -9.7939    0.6209   -0.6283 H   0  0  0  0  0  0  0  0  0  0  0  0
   -8.0952    0.3468   -2.3714 H   0  0  0  0  0  0  0  0  0  0  0  0
   -8.6278   -1.2447   -1.8154 H   0  0  0  0  0  0  0  0  0  0  0  0
   -4.1291   -0.7792   -2.2660 H   0  0  0  0  0  0  0  0  0  0  0  0
   -1.7676   -1.0399   -2.0477 H   0  0  0  0  0  0  0  0  0  0  0  0
    4.1409    1.4534   -1.5407 H   0  0  0  0  0  0  0  0  0  0  0  0
    6.1943    2.1099   -2.6571 H   0  0  0  0  0  0  0  0  0  0  0  0
  1  2  1  0
  2  3  1  0
  3  4  1  0
  4  5  2  0
  5  6  1  0
  6  7  1  0
  7  8  1  0
  8  9  2  0
  9 10  1  0
 10 11  1  0
 10 12  2  0
  9 13  1  0
 13 14  2  0
 14 15  1  0
 15 16  1  0
 16 17  1  0
 17 18  1  0
 18 19  1  0
 19 20  2  0
 20 21  1  0
 21 22  1  0
 22 23  1  0
 23 24  1  0
 24 25  1  0
 25 26  1  0
 26 27  1  0
 27 28  2  0
 21 29  2  0
 29 30  1  0
 17 31  1  0
 31 32  2  0
  6 33  2  0
 33 34  1  0
 34  3  2  0
 14  7  1  0
 30 18  2  0
 31 13  1  0
 27 22  1  0
  1 35  1  0
  1 36  1  0
  1 37  1  0
  4 38  1  0
  5 39  1  0
 11 40  1  0
 11 41  1  0
 15 42  1  0
 15 43  1  0
 16 44  1  0
 16 45  1  0
 19 46  1  0
 20 47  1  0
 23 48  1  0
 23 49  1  0
 24 50  1  0
 24 51  1  0
 25 52  1  0
 25 53  1  0
 26 54  1  0
 26 55  1  0
 29 56  1  0
 30 57  1  0
 33 58  1  0
 34 59  1  0
M  END
