
     RDKit          3D

 21 21  0  0  0  0  0  0  0  0999 V2000
   -2.6518   -2.2039   -0.0733 C   0  0  0  0  0  0  0  0  0  0  0  0
   -1.8240   -0.9974    0.2545 C   0  0  0  0  0  0  0  0  0  0  0  0
   -1.9084   -0.3627    1.2980 O   0  0  0  0  0  0  0  0  0  0  0  0
   -0.9858   -0.7216   -0.8202 O   0  0  0  0  0  0  0  0  0  0  0  0
   -0.1116    0.3381   -0.5612 C   0  0  0  0  0  0  0  0  0  0  0  0
   -0.4640    1.5868   -1.0836 C   0  0  0  0  0  0  0  0  0  0  0  0
    0.3779    2.6794   -0.8862 C   0  0  0  0  0  0  0  0  0  0  0  0
    1.5706    2.5212   -0.1811 C   0  0  0  0  0  0  0  0  0  0  0  0
    1.9291    1.2668    0.3236 C   0  0  0  0  0  0  0  0  0  0  0  0
    1.0933    0.1554    0.1329 C   0  0  0  0  0  0  0  0  0  0  0  0
    1.4817   -1.1865    0.6414 C   0  0  0  0  0  0  0  0  0  0  0  0
    0.8888   -2.2361    0.4729 O   0  0  0  0  0  0  0  0  0  0  0  0
    2.6258   -1.1580    1.3520 O   0  0  0  0  0  0  0  0  0  0  0  0
   -3.3045   -1.9853   -0.9218 H   0  0  0  0  0  0  0  0  0  0  0  0
   -3.2714   -2.4627    0.7901 H   0  0  0  0  0  0  0  0  0  0  0  0
   -2.0000   -3.0524   -0.2966 H   0  0  0  0  0  0  0  0  0  0  0  0
   -1.3929    1.7088   -1.6335 H   0  0  0  0  0  0  0  0  0  0  0  0
    0.1041    3.6553   -1.2799 H   0  0  0  0  0  0  0  0  0  0  0  0
    2.2263    3.3749   -0.0248 H   0  0  0  0  0  0  0  0  0  0  0  0
    2.8684    1.1691    0.8634 H   0  0  0  0  0  0  0  0  0  0  0  0
    2.7484   -2.0889    1.6334 H   0  0  0  0  0  0  0  0  0  0  0  0
  1  2  1  0
  2  3  2  0
  2  4  1  0
  4  5  1  0
  5  6  2  0
  6  7  1  0
  7  8  2  0
  8  9  1  0
  9 10  2  0
 10 11  1  0
 11 12  2  0
 11 13  1  0
 10  5  1  0
  1 14  1  0
  1 15  1  0
  1 16  1  0
  6 17  1  0
  7 18  1  0
  8 19  1  0
  9 20  1  0
 13 21  1  0
M  END
