
     RDKit          3D

 76 79  0  0  0  0  0  0  0  0999 V2000
   -0.7869    2.7789   -1.4138 C   0  0  0  0  0  0  0  0  0  0  0  0
   -0.2474    2.3804   -0.0379 C   0  0  0  0  0  0  0  0  0  0  0  0
   -0.6774    3.3806    1.0357 C   0  0  0  0  0  0  0  0  0  0  0  0
   -0.6315    0.9597    0.3319 C   0  0  0  0  0  0  0  0  0  0  0  0
   -1.8906    0.3911    0.5144 C   0  0  0  0  0  0  0  0  0  0  0  0
   -3.1806    1.0605    0.3606 C   0  0  0  0  0  0  0  0  0  0  0  0
   -3.7244    1.6160    1.3084 O   0  0  0  0  0  0  0  0  0  0  0  0
   -3.6601    0.9310   -0.9275 N   0  0  0  0  0  0  0  0  0  0  0  0
   -4.8509    1.4560   -1.4633 C   0  0  0  0  0  0  0  0  0  0  0  0
   -5.0800    1.2586   -2.8314 C   0  0  0  0  0  0  0  0  0  0  0  0
   -6.2290    1.7651   -3.4434 C   0  0  0  0  0  0  0  0  0  0  0  0
   -7.1645    2.4727   -2.6894 C   0  0  0  0  0  0  0  0  0  0  0  0
   -6.9507    2.6644   -1.3267 C   0  0  0  0  0  0  0  0  0  0  0  0
   -5.7979    2.1605   -0.7151 C   0  0  0  0  0  0  0  0  0  0  0  0
   -1.7063   -0.9793    0.8689 C   0  0  0  0  0  0  0  0  0  0  0  0
   -2.7305   -1.9641    1.1919 C   0  0  0  0  0  0  0  0  0  0  0  0
   -2.8471   -3.1509    0.4554 C   0  0  0  0  0  0  0  0  0  0  0  0
   -3.8413   -4.0792    0.7717 C   0  0  0  0  0  0  0  0  0  0  0  0
   -4.7189   -3.8151    1.8162 C   0  0  0  0  0  0  0  0  0  0  0  0
   -5.6721   -4.7064    2.1197 F   0  0  0  0  0  0  0  0  0  0  0  0
   -4.6245   -2.6398    2.5514 C   0  0  0  0  0  0  0  0  0  0  0  0
   -3.6272   -1.7138    2.2413 C   0  0  0  0  0  0  0  0  0  0  0  0
   -0.3424   -1.2357    0.8810 C   0  0  0  0  0  0  0  0  0  0  0  0
    0.3603   -2.4797    1.2091 C   0  0  0  0  0  0  0  0  0  0  0  0
    0.4186   -2.9238    2.5339 C   0  0  0  0  0  0  0  0  0  0  0  0
    1.0725   -4.1154    2.8498 C   0  0  0  0  0  0  0  0  0  0  0  0
    1.6687   -4.8715    1.8419 C   0  0  0  0  0  0  0  0  0  0  0  0
    1.6038   -4.4421    0.5165 C   0  0  0  0  0  0  0  0  0  0  0  0
    0.9499   -3.2506    0.2008 C   0  0  0  0  0  0  0  0  0  0  0  0
    0.3002   -0.0390    0.5905 N   0  0  0  0  0  0  0  0  0  0  0  0
    1.7522    0.1470    0.6275 C   0  0  0  0  0  0  0  0  0  0  0  0
    2.3781    0.0843   -0.7652 C   0  0  0  0  0  0  0  0  0  0  0  0
    3.9103    0.1571   -0.7444 C   0  0  1  0  0  0  0  0  0  0  0  0
    4.3629   -0.1037   -2.0750 O   0  0  0  0  0  0  0  0  0  0  0  0
    4.4414    1.5367   -0.3228 C   0  0  0  0  0  0  0  0  0  0  0  0
    5.9492    1.5702   -0.0197 C   0  0  1  0  0  0  0  0  0  0  0  0
    6.1825    0.6991    1.0921 O   0  0  0  0  0  0  0  0  0  0  0  0
    6.8325    1.1701   -1.2019 C   0  0  0  0  0  0  0  0  0  0  0  0
    8.2489    1.6365   -1.0208 C   0  0  0  0  0  0  0  0  0  0  0  0
    8.9577    2.1425   -1.8758 O   0  0  0  0  0  0  0  0  0  0  0  0
    8.7487    1.3685    0.2045 O   0  0  0  0  0  0  0  0  0  0  0  0
   -0.3174    3.7094   -1.7522 H   0  0  0  0  0  0  0  0  0  0  0  0
   -1.8677    2.9520   -1.3989 H   0  0  0  0  0  0  0  0  0  0  0  0
   -0.5773    2.0065   -2.1621 H   0  0  0  0  0  0  0  0  0  0  0  0
    0.8406    2.4572   -0.1166 H   0  0  0  0  0  0  0  0  0  0  0  0
   -1.7652    3.4923    1.0821 H   0  0  0  0  0  0  0  0  0  0  0  0
   -0.3275    3.0707    2.0281 H   0  0  0  0  0  0  0  0  0  0  0  0
   -0.2559    4.3712    0.8273 H   0  0  0  0  0  0  0  0  0  0  0  0
   -3.0535    0.4343   -1.5690 H   0  0  0  0  0  0  0  0  0  0  0  0
   -4.3646    0.7119   -3.4417 H   0  0  0  0  0  0  0  0  0  0  0  0
   -6.3929    1.6126   -4.5066 H   0  0  0  0  0  0  0  0  0  0  0  0
   -8.0592    2.8699   -3.1607 H   0  0  0  0  0  0  0  0  0  0  0  0
   -7.6796    3.2115   -0.7318 H   0  0  0  0  0  0  0  0  0  0  0  0
   -5.6732    2.3324    0.3491 H   0  0  0  0  0  0  0  0  0  0  0  0
   -2.1676   -3.3600   -0.3668 H   0  0  0  0  0  0  0  0  0  0  0  0
   -3.9359   -5.0026    0.2105 H   0  0  0  0  0  0  0  0  0  0  0  0
   -5.3248   -2.4481    3.3579 H   0  0  0  0  0  0  0  0  0  0  0  0
   -3.5521   -0.7969    2.8231 H   0  0  0  0  0  0  0  0  0  0  0  0
   -0.0547   -2.3469    3.3251 H   0  0  0  0  0  0  0  0  0  0  0  0
    1.1096   -4.4554    3.8823 H   0  0  0  0  0  0  0  0  0  0  0  0
    2.1731   -5.8020    2.0891 H   0  0  0  0  0  0  0  0  0  0  0  0
    2.0546   -5.0412   -0.2711 H   0  0  0  0  0  0  0  0  0  0  0  0
    0.8853   -2.9374   -0.8372 H   0  0  0  0  0  0  0  0  0  0  0  0
    2.1833   -0.6200    1.2791 H   0  0  0  0  0  0  0  0  0  0  0  0
    1.9393    1.1028    1.1268 H   0  0  0  0  0  0  0  0  0  0  0  0
    1.9796    0.8783   -1.4097 H   0  0  0  0  0  0  0  0  0  0  0  0
    2.0749   -0.8465   -1.2601 H   0  0  0  0  0  0  0  0  0  0  0  0
    4.3098   -0.6278   -0.0949 H   0  0  0  0  0  0  0  0  0  0  0  0
    4.1506   -1.0335   -2.2769 H   0  0  0  0  0  0  0  0  0  0  0  0
    3.9255    1.8595    0.5880 H   0  0  0  0  0  0  0  0  0  0  0  0
    4.2244    2.2716   -1.1060 H   0  0  0  0  0  0  0  0  0  0  0  0
    6.2061    2.5840    0.3131 H   0  0  0  0  0  0  0  0  0  0  0  0
    7.1471    0.7183    1.2605 H   0  0  0  0  0  0  0  0  0  0  0  0
    6.4607    1.6403   -2.1186 H   0  0  0  0  0  0  0  0  0  0  0  0
    6.8658    0.0850   -1.3403 H   0  0  0  0  0  0  0  0  0  0  0  0
    9.6825    1.6693    0.1382 H   0  0  0  0  0  0  0  0  0  0  0  0
  1  2  1  0
  2  3  1  0
  2  4  1  0
  4  5  2  0
  5  6  1  0
  6  7  2  0
  6  8  1  0
  8  9  1  0
  9 10  2  0
 10 11  1  0
 11 12  2  0
 12 13  1  0
 13 14  2  0
  5 15  1  0
 15 16  1  0
 16 17  1  0
 17 18  2  0
 18 19  1  0
 19 20  1  0
 19 21  2  0
 21 22  1  0
 15 23  2  0
 23 24  1  0
 24 25  2  0
 25 26  1  0
 26 27  2  0
 27 28  1  0
 28 29  2  0
 23 30  1  0
 30 31  1  0
 31 32  1  0
 32 33  1  0
 33 34  1  0
 33 35  1  0
 35 36  1  0
 36 37  1  0
 36 38  1  0
 38 39  1  0
 39 40  2  0
 39 41  1  0
 30  4  1  0
 14  9  1  0
 22 16  2  0
 29 24  1  0
  1 42  1  0
  1 43  1  0
  1 44  1  0
  2 45  1  0
  3 46  1  0
  3 47  1  0
  3 48  1  0
  8 49  1  0
 10 50  1  0
 11 51  1  0
 12 52  1  0
 13 53  1  0
 14 54  1  0
 17 55  1  0
 18 56  1  0
 21 57  1  0
 22 58  1  0
 25 59  1  0
 26 60  1  0
 27 61  1  0
 28 62  1  0
 29 63  1  0
 31 64  1  0
 31 65  1  0
 32 66  1  0
 32 67  1  0
 33 68  1  1
 34 69  1  0
 35 70  1  0
 35 71  1  0
 36 72  1  1
 37 73  1  0
 38 74  1  0
 38 75  1  0
 41 76  1  0
M  END
