
     RDKit          3D

124126  0  0  0  0  0  0  0  0999 V2000
    4.7873   -0.5271   -2.8017 C   0  0  0  0  0  0  0  0  0  0  0  0
    4.0198    0.4421   -1.9179 C   0  0  0  0  0  0  0  0  0  0  0  0
    3.4436   -0.1283   -0.6080 C   0  0  2  0  0  0  0  0  0  0  0  0
    2.7510    0.9776    0.0683 O   0  0  0  0  0  0  0  0  0  0  0  0
    1.4494    1.2136   -0.2662 C   0  0  0  0  0  0  0  0  0  0  0  0
    0.8699    0.6240   -1.1649 O   0  0  0  0  0  0  0  0  0  0  0  0
    0.9022    2.4083    0.5137 C   0  0  2  0  0  0  0  0  0  0  0  0
    1.8107    2.8830    1.6544 C   0  0  0  0  0  0  0  0  0  0  0  0
   -0.5833    2.3504    0.9317 C   0  0  1  0  0  0  0  0  0  0  0  0
   -1.4142    2.1975   -0.2325 O   0  0  0  0  0  0  0  0  0  0  0  0
   -2.1935    3.3319   -0.6153 C   0  0  1  0  0  0  0  0  0  0  0  0
   -1.5743    3.9308   -1.8759 C   0  0  0  0  0  0  0  0  0  0  0  0
   -2.4276    5.0596   -2.4824 C   0  0  1  0  0  0  0  0  0  0  0  0
   -2.3172    6.3274   -1.6104 C   0  0  0  0  0  0  0  0  0  0  0  0
   -1.8372    5.3363   -3.7839 O   0  0  0  0  0  0  0  0  0  0  0  0
   -2.3706    6.4184   -4.5290 C   0  0  0  0  0  0  0  0  0  0  0  0
   -3.8778    4.5335   -2.6437 C   0  0  1  0  0  0  0  0  0  0  0  0
   -3.8818    3.5409   -3.6842 O   0  0  0  0  0  0  0  0  0  0  0  0
   -4.4316    3.8316   -1.3829 C   0  0  2  0  0  0  0  0  0  0  0  0
   -4.9472    4.7665   -0.2870 C   0  0  0  0  0  0  0  0  0  0  0  0
   -3.5237    2.8593   -0.8489 O   0  0  0  0  0  0  0  0  0  0  0  0
   -1.1246    1.4235    2.0778 C   0  0  2  0  0  0  0  0  0  0  0  0
   -0.7292    1.9416    3.4592 C   0  0  0  0  0  0  0  0  0  0  0  0
   -1.1353   -0.1324    1.9245 C   0  0  1  0  0  0  0  0  0  0  0  0
   -1.2564   -0.4386    0.5258 O   0  0  0  0  0  0  0  0  0  0  0  0
   -2.6031   -0.7418    0.1393 C   0  0  2  0  0  0  0  0  0  0  0  0
   -2.9367   -2.0490    0.6191 O   0  0  0  0  0  0  0  0  0  0  0  0
   -4.1937   -2.5113    0.1285 C   0  0  2  0  0  0  0  0  0  0  0  0
   -4.4626   -3.8671    0.7719 C   0  0  0  0  0  0  0  0  0  0  0  0
   -4.2300   -2.6162   -1.4087 C   0  0  0  0  0  0  0  0  0  0  0  0
   -3.0067   -1.9725   -2.1029 C   0  0  1  0  0  0  0  0  0  0  0  0
   -2.7575   -0.6105   -1.3964 C   0  0  1  0  0  0  0  0  0  0  0  0
   -3.9138    0.2215   -1.6727 O   0  0  0  0  0  0  0  0  0  0  0  0
   -1.8728   -2.9460   -2.1794 N   0  0  0  0  0  0  0  0  0  0  0  0
   -0.5775   -2.2993   -2.4125 C   0  0  0  0  0  0  0  0  0  0  0  0
   -2.0957   -3.9394   -3.2321 C   0  0  0  0  0  0  0  0  0  0  0  0
    0.0198   -1.0115    2.5574 C   0  0  2  0  0  0  0  0  0  0  0  0
   -0.2280   -1.2222    4.0674 C   0  0  0  0  0  0  0  0  0  0  0  0
    1.2567   -0.3141    2.4299 O   0  0  0  0  0  0  0  0  0  0  0  0
    0.0798   -2.4154    1.8612 C   0  0  0  0  0  0  0  0  0  0  0  0
    1.1470   -3.4409    2.3409 C   0  0  1  0  0  0  0  0  0  0  0  0
    0.5120   -4.8376    2.3268 C   0  0  0  0  0  0  0  0  0  0  0  0
    2.4271   -3.4375    1.4551 C   0  0  0  0  0  0  0  0  0  0  0  0
    3.7020   -3.4887    2.1892 N   0  0  0  0  0  0  0  0  0  0  0  0
    3.8372   -4.7387    2.9478 C   0  0  0  0  0  0  0  0  0  0  0  0
    4.9442   -3.1884    1.4089 C   0  0  2  0  0  0  0  0  0  0  0  0
    6.0439   -2.7367    2.3991 C   0  0  0  0  0  0  0  0  0  0  0  0
    4.9343   -2.1696    0.1910 C   0  0  1  0  0  0  0  0  0  0  0  0
    4.2965   -2.7740   -0.9487 O   0  0  0  0  0  0  0  0  0  0  0  0
    4.4683   -0.6833    0.4500 C   0  0  1  0  0  0  0  0  0  0  0  0
    5.6942    0.2497    0.6046 C   0  0  0  0  0  0  0  0  0  0  0  0
    3.8117   -0.6124    1.7329 O   0  0  0  0  0  0  0  0  0  0  0  0
    4.1582   -1.3759   -3.0954 H   0  0  0  0  0  0  0  0  0  0  0  0
    5.6898   -0.8986   -2.3155 H   0  0  0  0  0  0  0  0  0  0  0  0
    5.1022   -0.0312   -3.7238 H   0  0  0  0  0  0  0  0  0  0  0  0
    3.1946    0.8602   -2.5083 H   0  0  0  0  0  0  0  0  0  0  0  0
    4.6580    1.3016   -1.6922 H   0  0  0  0  0  0  0  0  0  0  0  0
    2.6962   -0.8987   -0.8283 H   0  0  0  0  0  0  0  0  0  0  0  0
    0.9723    3.2159   -0.2440 H   0  0  0  0  0  0  0  0  0  0  0  0
    2.0259    2.0892    2.3720 H   0  0  0  0  0  0  0  0  0  0  0  0
    2.7785    3.2203    1.2628 H   0  0  0  0  0  0  0  0  0  0  0  0
    1.3777    3.7281    2.1955 H   0  0  0  0  0  0  0  0  0  0  0  0
   -0.7657    3.3634    1.3164 H   0  0  0  0  0  0  0  0  0  0  0  0
   -2.2304    4.0647    0.1965 H   0  0  0  0  0  0  0  0  0  0  0  0
   -1.4437    3.1335   -2.6254 H   0  0  0  0  0  0  0  0  0  0  0  0
   -0.5549    4.2900   -1.6801 H   0  0  0  0  0  0  0  0  0  0  0  0
   -1.3130    6.7730   -1.7108 H   0  0  0  0  0  0  0  0  0  0  0  0
   -2.4926    6.1433   -0.5475 H   0  0  0  0  0  0  0  0  0  0  0  0
   -3.0288    7.0861   -1.9422 H   0  0  0  0  0  0  0  0  0  0  0  0
   -1.8907    6.4158   -5.5165 H   0  0  0  0  0  0  0  0  0  0  0  0
   -2.1417    7.3736   -4.0495 H   0  0  0  0  0  0  0  0  0  0  0  0
   -3.4474    6.3087   -4.6812 H   0  0  0  0  0  0  0  0  0  0  0  0
   -4.5697    5.3260   -2.9598 H   0  0  0  0  0  0  0  0  0  0  0  0
   -3.7843    4.0060   -4.5332 H   0  0  0  0  0  0  0  0  0  0  0  0
   -5.3016    3.2425   -1.7019 H   0  0  0  0  0  0  0  0  0  0  0  0
   -5.5394    5.5820   -0.7155 H   0  0  0  0  0  0  0  0  0  0  0  0
   -5.5825    4.2067    0.4055 H   0  0  0  0  0  0  0  0  0  0  0  0
   -4.1505    5.1971    0.3233 H   0  0  0  0  0  0  0  0  0  0  0  0
   -2.2046    1.6559    2.0352 H   0  0  0  0  0  0  0  0  0  0  0  0
   -1.3977    1.5295    4.2208 H   0  0  0  0  0  0  0  0  0  0  0  0
   -0.8341    3.0303    3.5308 H   0  0  0  0  0  0  0  0  0  0  0  0
    0.3016    1.6989    3.7261 H   0  0  0  0  0  0  0  0  0  0  0  0
   -2.0509   -0.4738    2.4375 H   0  0  0  0  0  0  0  0  0  0  0  0
   -3.2838   -0.0258    0.6280 H   0  0  0  0  0  0  0  0  0  0  0  0
   -4.9717   -1.8114    0.4620 H   0  0  0  0  0  0  0  0  0  0  0  0
   -5.4581   -4.2407    0.5056 H   0  0  0  0  0  0  0  0  0  0  0  0
   -4.3971   -3.7972    1.8697 H   0  0  0  0  0  0  0  0  0  0  0  0
   -3.7043   -4.6007    0.4616 H   0  0  0  0  0  0  0  0  0  0  0  0
   -4.3773   -3.6596   -1.7273 H   0  0  0  0  0  0  0  0  0  0  0  0
   -5.1378   -2.1027   -1.7563 H   0  0  0  0  0  0  0  0  0  0  0  0
   -3.3136   -1.7294   -3.1322 H   0  0  0  0  0  0  0  0  0  0  0  0
   -1.9090   -0.0840   -1.8500 H   0  0  0  0  0  0  0  0  0  0  0  0
   -3.6308    1.1498   -1.5060 H   0  0  0  0  0  0  0  0  0  0  0  0
    0.2185   -3.0479   -2.4711 H   0  0  0  0  0  0  0  0  0  0  0  0
   -0.3043   -1.6550   -1.5774 H   0  0  0  0  0  0  0  0  0  0  0  0
   -0.5757   -1.7091   -3.3415 H   0  0  0  0  0  0  0  0  0  0  0  0
   -3.0047   -4.5224   -3.0718 H   0  0  0  0  0  0  0  0  0  0  0  0
   -2.1535   -3.4813   -4.2288 H   0  0  0  0  0  0  0  0  0  0  0  0
   -1.2783   -4.6669   -3.2475 H   0  0  0  0  0  0  0  0  0  0  0  0
    0.6138   -1.7224    4.5489 H   0  0  0  0  0  0  0  0  0  0  0  0
   -0.3307   -0.2885    4.6119 H   0  0  0  0  0  0  0  0  0  0  0  0
   -1.1316   -1.8151    4.2431 H   0  0  0  0  0  0  0  0  0  0  0  0
    1.8103   -0.8280    1.8138 H   0  0  0  0  0  0  0  0  0  0  0  0
    0.2211   -2.2830    0.7824 H   0  0  0  0  0  0  0  0  0  0  0  0
   -0.9207   -2.8602    1.9701 H   0  0  0  0  0  0  0  0  0  0  0  0
    1.4262   -3.2202    3.3729 H   0  0  0  0  0  0  0  0  0  0  0  0
    1.2264   -5.6204    2.5822 H   0  0  0  0  0  0  0  0  0  0  0  0
   -0.3032   -4.8944    3.0594 H   0  0  0  0  0  0  0  0  0  0  0  0
    0.0901   -5.0704    1.3434 H   0  0  0  0  0  0  0  0  0  0  0  0
    2.4006   -2.5182    0.8737 H   0  0  0  0  0  0  0  0  0  0  0  0
    2.3770   -4.2679    0.7411 H   0  0  0  0  0  0  0  0  0  0  0  0
    3.0237   -4.8594    3.6693 H   0  0  0  0  0  0  0  0  0  0  0  0
    3.8408   -5.6094    2.2858 H   0  0  0  0  0  0  0  0  0  0  0  0
    4.7462   -4.7690    3.5505 H   0  0  0  0  0  0  0  0  0  0  0  0
    5.2692   -4.1381    0.9617 H   0  0  0  0  0  0  0  0  0  0  0  0
    6.3427   -3.5322    3.0851 H   0  0  0  0  0  0  0  0  0  0  0  0
    6.9532   -2.4488    1.8594 H   0  0  0  0  0  0  0  0  0  0  0  0
    5.7354   -1.8797    2.9994 H   0  0  0  0  0  0  0  0  0  0  0  0
    5.9773   -2.0974   -0.1477 H   0  0  0  0  0  0  0  0  0  0  0  0
    3.5045   -3.2518   -0.6501 H   0  0  0  0  0  0  0  0  0  0  0  0
    6.3125   -0.0450    1.4573 H   0  0  0  0  0  0  0  0  0  0  0  0
    6.3284    0.2425   -0.2893 H   0  0  0  0  0  0  0  0  0  0  0  0
    5.3753    1.2824    0.7980 H   0  0  0  0  0  0  0  0  0  0  0  0
    3.4573    0.2966    1.8218 H   0  0  0  0  0  0  0  0  0  0  0  0
  1  2  1  0
  2  3  1  0
  3  4  1  0
  4  5  1  0
  5  6  2  0
  5  7  1  0
  7  8  1  0
  7  9  1  0
  9 10  1  0
 10 11  1  0
 11 12  1  0
 12 13  1  0
 13 14  1  0
 13 15  1  6
 15 16  1  0
 13 17  1  0
 17 18  1  0
 17 19  1  0
 19 20  1  0
 19 21  1  0
  9 22  1  0
 22 23  1  0
 22 24  1  0
 24 25  1  0
 25 26  1  0
 26 27  1  0
 27 28  1  0
 28 29  1  0
 28 30  1  0
 30 31  1  0
 31 32  1  0
 32 33  1  0
 31 34  1  0
 34 35  1  0
 34 36  1  0
 24 37  1  0
 37 38  1  0
 37 39  1  1
 37 40  1  0
 40 41  1  0
 41 42  1  0
 41 43  1  0
 43 44  1  0
 44 45  1  0
 44 46  1  0
 46 47  1  0
 46 48  1  0
 48 49  1  0
 48 50  1  0
 50 51  1  0
 50 52  1  1
 50  3  1  0
 21 11  1  0
 32 26  1  0
  1 53  1  0
  1 54  1  0
  1 55  1  0
  2 56  1  0
  2 57  1  0
  3 58  1  6
  7 59  1  6
  8 60  1  0
  8 61  1  0
  8 62  1  0
  9 63  1  1
 11 64  1  1
 12 65  1  0
 12 66  1  0
 14 67  1  0
 14 68  1  0
 14 69  1  0
 16 70  1  0
 16 71  1  0
 16 72  1  0
 17 73  1  6
 18 74  1  0
 19 75  1  6
 20 76  1  0
 20 77  1  0
 20 78  1  0
 22 79  1  1
 23 80  1  0
 23 81  1  0
 23 82  1  0
 24 83  1  1
 26 84  1  1
 28 85  1  1
 29 86  1  0
 29 87  1  0
 29 88  1  0
 30 89  1  0
 30 90  1  0
 31 91  1  6
 32 92  1  6
 33 93  1  0
 35 94  1  0
 35 95  1  0
 35 96  1  0
 36 97  1  0
 36 98  1  0
 36 99  1  0
 38100  1  0
 38101  1  0
 38102  1  0
 39103  1  0
 40104  1  0
 40105  1  0
 41106  1  1
 42107  1  0
 42108  1  0
 42109  1  0
 43110  1  0
 43111  1  0
 45112  1  0
 45113  1  0
 45114  1  0
 46115  1  6
 47116  1  0
 47117  1  0
 47118  1  0
 48119  1  6
 49120  1  0
 51121  1  0
 51122  1  0
 51123  1  0
 52124  1  0
M  END
