
     RDKit          3D

 34 34  0  0  0  0  0  0  0  0999 V2000
   -0.2401   -0.5519   -1.9026 C   0  0  0  0  0  0  0  0  0  0  0  0
   -0.1334   -0.0344   -0.4709 C   0  0  0  0  0  0  0  0  0  0  0  0
   -1.3436    0.6272    0.0361 N   0  0  0  0  0  0  0  0  0  0  0  0
   -2.5905   -0.1221    0.2165 C   0  0  0  0  0  0  0  0  0  0  0  0
   -3.3895    0.6718    1.2713 C   0  0  0  0  0  0  0  0  0  0  0  0
   -3.4242   -0.1530   -1.0752 C   0  0  0  0  0  0  0  0  0  0  0  0
   -2.3855   -1.5482    0.7513 C   0  0  0  0  0  0  0  0  0  0  0  0
    0.9903    1.0246   -0.4484 C   0  0  0  0  0  0  0  0  0  0  0  0
    0.8012    2.1775   -0.8455 O   0  0  0  0  0  0  0  0  0  0  0  0
    2.3496    0.6526    0.0483 C   0  0  0  0  0  0  0  0  0  0  0  0
    3.2089    1.6875    0.4494 C   0  0  0  0  0  0  0  0  0  0  0  0
    4.4932    1.4038    0.9181 C   0  0  0  0  0  0  0  0  0  0  0  0
    4.9308    0.0827    0.9835 C   0  0  0  0  0  0  0  0  0  0  0  0
    4.0833   -0.9459    0.5755 C   0  0  0  0  0  0  0  0  0  0  0  0
    4.6307   -2.5766    0.6451 Cl  0  0  0  0  0  0  0  0  0  0  0  0
    2.7972   -0.6715    0.1060 C   0  0  0  0  0  0  0  0  0  0  0  0
   -0.6507    0.2105   -2.5746 H   0  0  0  0  0  0  0  0  0  0  0  0
   -0.8697   -1.4432   -1.9632 H   0  0  0  0  0  0  0  0  0  0  0  0
    0.7445   -0.8269   -2.2974 H   0  0  0  0  0  0  0  0  0  0  0  0
    0.1320   -0.8432    0.2144 H   0  0  0  0  0  0  0  0  0  0  0  0
   -1.4983    1.4942   -0.4862 H   0  0  0  0  0  0  0  0  0  0  0  0
   -2.8463    0.7325    2.2222 H   0  0  0  0  0  0  0  0  0  0  0  0
   -4.3565    0.1972    1.4756 H   0  0  0  0  0  0  0  0  0  0  0  0
   -3.5923    1.6966    0.9369 H   0  0  0  0  0  0  0  0  0  0  0  0
   -4.4197   -0.5725   -0.8864 H   0  0  0  0  0  0  0  0  0  0  0  0
   -2.9652   -0.7652   -1.8551 H   0  0  0  0  0  0  0  0  0  0  0  0
   -3.5689    0.8545   -1.4827 H   0  0  0  0  0  0  0  0  0  0  0  0
   -3.3473   -2.0208    0.9832 H   0  0  0  0  0  0  0  0  0  0  0  0
   -1.8800   -2.1925    0.0251 H   0  0  0  0  0  0  0  0  0  0  0  0
   -1.7927   -1.5469    1.6734 H   0  0  0  0  0  0  0  0  0  0  0  0
    2.8768    2.7241    0.4004 H   0  0  0  0  0  0  0  0  0  0  0  0
    5.1490    2.2135    1.2294 H   0  0  0  0  0  0  0  0  0  0  0  0
    5.9312   -0.1375    1.3475 H   0  0  0  0  0  0  0  0  0  0  0  0
    2.1756   -1.4983   -0.2211 H   0  0  0  0  0  0  0  0  0  0  0  0
  1  2  1  0
  2  3  1  0
  3  4  1  0
  4  5  1  0
  4  6  1  0
  4  7  1  0
  2  8  1  0
  8  9  2  0
  8 10  1  0
 10 11  2  0
 11 12  1  0
 12 13  2  0
 13 14  1  0
 14 15  1  0
 14 16  2  0
 16 10  1  0
  1 17  1  0
  1 18  1  0
  1 19  1  0
  2 20  1  0
  3 21  1  0
  5 22  1  0
  5 23  1  0
  5 24  1  0
  6 25  1  0
  6 26  1  0
  6 27  1  0
  7 28  1  0
  7 29  1  0
  7 30  1  0
 11 31  1  0
 12 32  1  0
 13 33  1  0
 16 34  1  0
M  END
