
     RDKit          3D

 56 59  0  0  0  0  0  0  0  0999 V2000
    8.2965    1.0098   -0.0785 C   0  0  0  0  0  0  0  0  0  0  0  0
    6.8946    0.8086   -0.1942 O   0  0  0  0  0  0  0  0  0  0  0  0
    6.4531   -0.0136   -1.2028 C   0  0  0  0  0  0  0  0  0  0  0  0
    7.2920   -0.7086   -2.0828 C   0  0  0  0  0  0  0  0  0  0  0  0
    6.7509   -1.5255   -3.0782 C   0  0  0  0  0  0  0  0  0  0  0  0
    5.3709   -1.6518   -3.2023 C   0  0  0  0  0  0  0  0  0  0  0  0
    4.5240   -0.9632   -2.3310 C   0  0  0  0  0  0  0  0  0  0  0  0
    5.0546   -0.1449   -1.3265 C   0  0  0  0  0  0  0  0  0  0  0  0
    4.3020    0.5651   -0.4237 O   0  0  0  0  0  0  0  0  0  0  0  0
    2.8826    0.4426   -0.4973 C   0  0  0  0  0  0  0  0  0  0  0  0
    2.2761    1.2756    0.6411 C   0  0  0  0  0  0  0  0  0  0  0  0
    0.8079    1.1847    0.6604 N   0  0  0  0  0  0  0  0  0  0  0  0
    0.2633    1.9470    1.8011 C   0  0  0  0  0  0  0  0  0  0  0  0
   -1.2772    2.0159    1.7477 C   0  0  0  0  0  0  0  0  0  0  0  0
   -1.6533    2.5854    0.4810 O   0  0  0  0  0  0  0  0  0  0  0  0
   -1.9333    0.6373    1.9175 C   0  0  0  0  0  0  0  0  0  0  0  0
   -3.3157    0.8153    2.2716 O   0  0  0  0  0  0  0  0  0  0  0  0
   -3.9658   -0.3999    2.2228 C   0  0  0  0  0  0  0  0  0  0  0  0
   -3.9052   -1.2414    3.3416 C   0  0  0  0  0  0  0  0  0  0  0  0
   -4.5508   -2.4750    3.3302 C   0  0  0  0  0  0  0  0  0  0  0  0
   -5.2805   -2.8941    2.2127 C   0  0  0  0  0  0  0  0  0  0  0  0
   -5.3539   -2.0246    1.1155 C   0  0  0  0  0  0  0  0  0  0  0  0
   -6.0057   -2.1699   -0.0882 N   0  0  0  0  0  0  0  0  0  0  0  0
   -5.8322   -1.0617   -0.8826 C   0  0  0  0  0  0  0  0  0  0  0  0
   -6.3200   -0.7854   -2.1667 C   0  0  0  0  0  0  0  0  0  0  0  0
   -5.9849    0.4469   -2.7358 C   0  0  0  0  0  0  0  0  0  0  0  0
   -5.1958    1.3640   -2.0458 C   0  0  0  0  0  0  0  0  0  0  0  0
   -4.7168    1.0699   -0.7638 C   0  0  0  0  0  0  0  0  0  0  0  0
   -5.0361   -0.1675   -0.1662 C   0  0  0  0  0  0  0  0  0  0  0  0
   -4.7243   -0.7787    1.0927 C   0  0  0  0  0  0  0  0  0  0  0  0
    8.4674    1.7071    0.7473 H   0  0  0  0  0  0  0  0  0  0  0  0
    8.8100    0.0750    0.1670 H   0  0  0  0  0  0  0  0  0  0  0  0
    8.7093    1.4627   -0.9863 H   0  0  0  0  0  0  0  0  0  0  0  0
    8.3725   -0.6371   -2.0201 H   0  0  0  0  0  0  0  0  0  0  0  0
    7.4090   -2.0626   -3.7573 H   0  0  0  0  0  0  0  0  0  0  0  0
    4.9510   -2.2863   -3.9797 H   0  0  0  0  0  0  0  0  0  0  0  0
    3.4545   -1.0856   -2.4643 H   0  0  0  0  0  0  0  0  0  0  0  0
    2.5899   -0.6072   -0.3711 H   0  0  0  0  0  0  0  0  0  0  0  0
    2.5210    0.8211   -1.4613 H   0  0  0  0  0  0  0  0  0  0  0  0
    2.5904    2.3196    0.5200 H   0  0  0  0  0  0  0  0  0  0  0  0
    2.6940    0.9287    1.5951 H   0  0  0  0  0  0  0  0  0  0  0  0
    0.5454    0.2026    0.7536 H   0  0  0  0  0  0  0  0  0  0  0  0
    0.6456    2.9737    1.7486 H   0  0  0  0  0  0  0  0  0  0  0  0
    0.5893    1.5081    2.7507 H   0  0  0  0  0  0  0  0  0  0  0  0
   -1.6410    2.6999    2.5237 H   0  0  0  0  0  0  0  0  0  0  0  0
   -1.0044    2.2287   -0.1603 H   0  0  0  0  0  0  0  0  0  0  0  0
   -1.8595    0.0701    0.9811 H   0  0  0  0  0  0  0  0  0  0  0  0
   -1.4347    0.0869    2.7237 H   0  0  0  0  0  0  0  0  0  0  0  0
   -3.3547   -0.9278    4.2242 H   0  0  0  0  0  0  0  0  0  0  0  0
   -4.4922   -3.1203    4.2055 H   0  0  0  0  0  0  0  0  0  0  0  0
   -5.7842   -3.8553    2.2092 H   0  0  0  0  0  0  0  0  0  0  0  0
   -6.5492   -2.9793   -0.3519 H   0  0  0  0  0  0  0  0  0  0  0  0
   -6.9392   -1.4949   -2.7050 H   0  0  0  0  0  0  0  0  0  0  0  0
   -6.3494    0.6943   -3.7308 H   0  0  0  0  0  0  0  0  0  0  0  0
   -4.9494    2.3203   -2.5008 H   0  0  0  0  0  0  0  0  0  0  0  0
   -4.1083    1.7952   -0.2306 H   0  0  0  0  0  0  0  0  0  0  0  0
  1  2  1  0
  2  3  1  0
  3  4  2  0
  4  5  1  0
  5  6  2  0
  6  7  1  0
  7  8  2  0
  8  9  1  0
  9 10  1  0
 10 11  1  0
 11 12  1  0
 12 13  1  0
 13 14  1  0
 14 15  1  0
 14 16  1  0
 16 17  1  0
 17 18  1  0
 18 19  1  0
 19 20  2  0
 20 21  1  0
 21 22  2  0
 22 23  1  0
 23 24  1  0
 24 25  2  0
 25 26  1  0
 26 27  2  0
 27 28  1  0
 28 29  2  0
 29 30  1  0
  8  3  1  0
 30 18  2  0
 30 22  1  0
 29 24  1  0
  1 31  1  0
  1 32  1  0
  1 33  1  0
  4 34  1  0
  5 35  1  0
  6 36  1  0
  7 37  1  0
 10 38  1  0
 10 39  1  0
 11 40  1  0
 11 41  1  0
 12 42  1  0
 13 43  1  0
 13 44  1  0
 14 45  1  0
 15 46  1  0
 16 47  1  0
 16 48  1  0
 19 49  1  0
 20 50  1  0
 21 51  1  0
 23 52  1  0
 25 53  1  0
 26 54  1  0
 27 55  1  0
 28 56  1  0
M  END
