
     RDKit          3D

 40 42  0  0  0  0  0  0  0  0999 V2000
    4.1328    3.3868    0.4677 C   0  0  0  0  0  0  0  0  0  0  0  0
    3.3634    2.1150    0.2637 C   0  0  0  0  0  0  0  0  0  0  0  0
    3.4804    1.4004   -0.9341 C   0  0  0  0  0  0  0  0  0  0  0  0
    2.7896    0.1991   -1.1130 C   0  0  0  0  0  0  0  0  0  0  0  0
    1.9704   -0.3037   -0.0961 C   0  0  0  0  0  0  0  0  0  0  0  0
    1.2616   -1.5659   -0.2801 C   0  0  0  0  0  0  0  0  0  0  0  0
    1.8324   -2.8185   -0.4120 C   0  0  0  0  0  0  0  0  0  0  0  0
    0.7688   -3.7441   -0.3909 C   0  0  0  0  0  0  0  0  0  0  0  0
    0.8799   -5.2432   -0.4642 C   0  0  0  0  0  0  0  0  0  0  0  0
    0.4182   -5.8543    0.6589 F   0  0  0  0  0  0  0  0  0  0  0  0
    0.1936   -5.7656   -1.5147 F   0  0  0  0  0  0  0  0  0  0  0  0
    2.1732   -5.6455   -0.6145 F   0  0  0  0  0  0  0  0  0  0  0  0
   -0.4066   -3.1086   -0.2609 N   0  0  0  0  0  0  0  0  0  0  0  0
   -0.1189   -1.7743   -0.2814 N   0  0  0  0  0  0  0  0  0  0  0  0
   -1.2078   -0.8432   -0.3152 C   0  0  0  0  0  0  0  0  0  0  0  0
   -2.5085   -1.3120   -0.0452 C   0  0  0  0  0  0  0  0  0  0  0  0
   -3.6036   -0.4434   -0.0677 C   0  0  0  0  0  0  0  0  0  0  0  0
   -3.4046    0.9046   -0.3637 C   0  0  0  0  0  0  0  0  0  0  0  0
   -4.7896    2.0019   -0.4256 S   0  0  0  0  0  0  0  0  0  0  0  0
   -4.8829    2.5311    1.1651 N   0  0  0  0  0  0  0  0  0  0  0  0
   -4.4420    3.1644   -1.2091 O   0  0  0  0  0  0  0  0  0  0  0  0
   -5.9928    1.2393   -0.6622 O   0  0  0  0  0  0  0  0  0  0  0  0
   -2.1280    1.3811   -0.6659 C   0  0  0  0  0  0  0  0  0  0  0  0
   -1.0333    0.5082   -0.6432 C   0  0  0  0  0  0  0  0  0  0  0  0
    1.8776    0.3938    1.1142 C   0  0  0  0  0  0  0  0  0  0  0  0
    2.5693    1.5947    1.2920 C   0  0  0  0  0  0  0  0  0  0  0  0
    3.5998    4.0609    1.1465 H   0  0  0  0  0  0  0  0  0  0  0  0
    5.1176    3.1646    0.8901 H   0  0  0  0  0  0  0  0  0  0  0  0
    4.2655    3.9191   -0.4801 H   0  0  0  0  0  0  0  0  0  0  0  0
    4.1128    1.7743   -1.7367 H   0  0  0  0  0  0  0  0  0  0  0  0
    2.8929   -0.3364   -2.0542 H   0  0  0  0  0  0  0  0  0  0  0  0
    2.8913   -3.0397   -0.4591 H   0  0  0  0  0  0  0  0  0  0  0  0
   -2.6878   -2.3600    0.1934 H   0  0  0  0  0  0  0  0  0  0  0  0
   -4.5990   -0.8280    0.1434 H   0  0  0  0  0  0  0  0  0  0  0  0
   -5.7694    2.2354    1.5750 H   0  0  0  0  0  0  0  0  0  0  0  0
   -4.7278    3.5388    1.2029 H   0  0  0  0  0  0  0  0  0  0  0  0
   -1.9739    2.4254   -0.9309 H   0  0  0  0  0  0  0  0  0  0  0  0
   -0.0715    0.9208   -0.9265 H   0  0  0  0  0  0  0  0  0  0  0  0
    1.2703    0.0072    1.9299 H   0  0  0  0  0  0  0  0  0  0  0  0
    2.4864    2.1198    2.2412 H   0  0  0  0  0  0  0  0  0  0  0  0
  1  2  1  0
  2  3  1  0
  3  4  2  0
  4  5  1  0
  5  6  1  0
  6  7  2  0
  7  8  1  0
  8  9  1  0
  9 10  1  0
  9 11  1  0
  9 12  1  0
  8 13  2  0
 13 14  1  0
 14 15  1  0
 15 16  1  0
 16 17  2  0
 17 18  1  0
 18 19  1  0
 19 20  1  0
 19 21  2  0
 19 22  2  0
 18 23  2  0
 23 24  1  0
  5 25  2  0
 25 26  1  0
 26  2  2  0
 14  6  1  0
 24 15  2  0
  1 27  1  0
  1 28  1  0
  1 29  1  0
  3 30  1  0
  4 31  1  0
  7 32  1  0
 16 33  1  0
 17 34  1  0
 20 35  1  0
 20 36  1  0
 23 37  1  0
 24 38  1  0
 25 39  1  0
 26 40  1  0
M  END
