
     RDKit          3D

 52 54  0  0  0  0  0  0  0  0999 V2000
    7.5923    1.7732   -1.8080 O   0  0  0  0  0  0  0  0  0  0  0  0
    6.6649    1.3678   -0.9131 C   0  0  0  0  0  0  0  0  0  0  0  0
    6.0276    2.1907   -0.2768 O   0  0  0  0  0  0  0  0  0  0  0  0
    6.5578   -0.1530   -0.8474 C   0  0  0  0  0  0  0  0  0  0  0  0
    5.6117   -0.6749    0.0764 O   0  0  0  0  0  0  0  0  0  0  0  0
    4.2616   -0.5278   -0.3775 C   0  0  0  0  0  0  0  0  0  0  0  0
    3.3193   -1.1386    0.6713 C   0  0  0  0  0  0  0  0  0  0  0  0
    1.9018   -1.0994    0.2846 N   0  0  0  0  0  0  0  0  0  0  0  0
    1.3827    0.2826    0.1823 C   0  0  0  0  0  0  0  0  0  0  0  0
   -0.1506    0.4330    0.3920 C   0  0  0  0  0  0  0  0  0  0  0  0
   -0.8728   -0.7756   -0.0044 N   0  0  0  0  0  0  0  0  0  0  0  0
   -0.4204   -1.9383    0.7751 C   0  0  0  0  0  0  0  0  0  0  0  0
    1.0704   -1.8825    1.2101 C   0  0  0  0  0  0  0  0  0  0  0  0
   -2.3408   -0.6702   -0.1371 C   0  0  0  0  0  0  0  0  0  0  0  0
   -3.0436   -0.1674    1.1329 C   0  0  0  0  0  0  0  0  0  0  0  0
   -3.1102    1.1999    1.4564 C   0  0  0  0  0  0  0  0  0  0  0  0
   -3.7536    1.6315    2.6179 C   0  0  0  0  0  0  0  0  0  0  0  0
   -4.3420    0.7049    3.4751 C   0  0  0  0  0  0  0  0  0  0  0  0
   -4.2904   -0.6533    3.1710 C   0  0  0  0  0  0  0  0  0  0  0  0
   -3.6477   -1.0865    2.0093 C   0  0  0  0  0  0  0  0  0  0  0  0
   -2.7874    0.0344   -1.4387 C   0  0  0  0  0  0  0  0  0  0  0  0
   -4.1262    0.4360   -1.6174 C   0  0  0  0  0  0  0  0  0  0  0  0
   -4.5507    1.0357   -2.8074 C   0  0  0  0  0  0  0  0  0  0  0  0
   -3.6483    1.2208   -3.8496 C   0  0  0  0  0  0  0  0  0  0  0  0
   -4.1698    1.9582   -5.3138 Cl  0  0  0  0  0  0  0  0  0  0  0  0
   -2.3290    0.8014   -3.7166 C   0  0  0  0  0  0  0  0  0  0  0  0
   -1.9070    0.2025   -2.5253 C   0  0  0  0  0  0  0  0  0  0  0  0
    7.5637    2.7522   -1.7501 H   0  0  0  0  0  0  0  0  0  0  0  0
    7.5380   -0.5256   -0.5311 H   0  0  0  0  0  0  0  0  0  0  0  0
    6.3516   -0.5415   -1.8514 H   0  0  0  0  0  0  0  0  0  0  0  0
    4.1418   -1.0496   -1.3342 H   0  0  0  0  0  0  0  0  0  0  0  0
    4.0374    0.5334   -0.5214 H   0  0  0  0  0  0  0  0  0  0  0  0
    3.4810   -0.6485    1.6408 H   0  0  0  0  0  0  0  0  0  0  0  0
    3.6293   -2.1824    0.8148 H   0  0  0  0  0  0  0  0  0  0  0  0
    1.6283    0.6523   -0.8207 H   0  0  0  0  0  0  0  0  0  0  0  0
    1.8774    0.9451    0.9045 H   0  0  0  0  0  0  0  0  0  0  0  0
   -0.3305    0.6512    1.4524 H   0  0  0  0  0  0  0  0  0  0  0  0
   -0.4805    1.3060   -0.1820 H   0  0  0  0  0  0  0  0  0  0  0  0
   -0.5674   -2.8319    0.1567 H   0  0  0  0  0  0  0  0  0  0  0  0
   -1.0150   -2.0721    1.6850 H   0  0  0  0  0  0  0  0  0  0  0  0
    1.4418   -2.9123    1.2776 H   0  0  0  0  0  0  0  0  0  0  0  0
    1.1313   -1.4500    2.2182 H   0  0  0  0  0  0  0  0  0  0  0  0
   -2.7057   -1.6946   -0.3115 H   0  0  0  0  0  0  0  0  0  0  0  0
   -2.6649    1.9414    0.7966 H   0  0  0  0  0  0  0  0  0  0  0  0
   -3.7965    2.6921    2.8517 H   0  0  0  0  0  0  0  0  0  0  0  0
   -4.8434    1.0417    4.3786 H   0  0  0  0  0  0  0  0  0  0  0  0
   -4.7518   -1.3767    3.8379 H   0  0  0  0  0  0  0  0  0  0  0  0
   -3.6197   -2.1518    1.7909 H   0  0  0  0  0  0  0  0  0  0  0  0
   -4.8594    0.2842   -0.8269 H   0  0  0  0  0  0  0  0  0  0  0  0
   -5.5859    1.3481   -2.9129 H   0  0  0  0  0  0  0  0  0  0  0  0
   -1.6243    0.9262   -4.5339 H   0  0  0  0  0  0  0  0  0  0  0  0
   -0.8764   -0.1420   -2.4562 H   0  0  0  0  0  0  0  0  0  0  0  0
  1  2  1  0
  2  3  2  0
  2  4  1  0
  4  5  1  0
  5  6  1  0
  6  7  1  0
  7  8  1  0
  8  9  1  0
  9 10  1  0
 10 11  1  0
 11 12  1  0
 12 13  1  0
 11 14  1  0
 14 15  1  0
 15 16  2  0
 16 17  1  0
 17 18  2  0
 18 19  1  0
 19 20  2  0
 14 21  1  0
 21 22  1  0
 22 23  2  0
 23 24  1  0
 24 25  1  0
 24 26  2  0
 26 27  1  0
 13  8  1  0
 20 15  1  0
 27 21  2  0
  1 28  1  0
  4 29  1  0
  4 30  1  0
  6 31  1  0
  6 32  1  0
  7 33  1  0
  7 34  1  0
  9 35  1  0
  9 36  1  0
 10 37  1  0
 10 38  1  0
 12 39  1  0
 12 40  1  0
 13 41  1  0
 13 42  1  0
 14 43  1  0
 16 44  1  0
 17 45  1  0
 18 46  1  0
 19 47  1  0
 20 48  1  0
 22 49  1  0
 23 50  1  0
 26 51  1  0
 27 52  1  0
M  END
