
     RDKit          3D

 42 45  0  0  0  0  0  0  0  0999 V2000
   -5.2392    3.3026   -0.8441 O   0  0  0  0  0  0  0  0  0  0  0  0
   -5.1772    2.0026   -0.5223 C   0  0  0  0  0  0  0  0  0  0  0  0
   -6.1803    1.3073   -0.5330 O   0  0  0  0  0  0  0  0  0  0  0  0
   -3.8144    1.5324   -0.2506 C   0  0  0  0  0  0  0  0  0  0  0  0
   -3.5422    0.2412   -0.4936 C   0  0  0  0  0  0  0  0  0  0  0  0
   -2.3203   -0.3817   -0.3134 N   0  0  0  0  0  0  0  0  0  0  0  0
   -2.2003   -1.8021   -0.6940 C   0  0  0  0  0  0  0  0  0  0  0  0
   -3.1903   -2.8452   -0.2321 C   0  0  0  0  0  0  0  0  0  0  0  0
   -1.7953   -2.8566    0.3072 C   0  0  0  0  0  0  0  0  0  0  0  0
   -1.1825    0.4088    0.0202 C   0  0  0  0  0  0  0  0  0  0  0  0
    0.1239   -0.1189    0.0609 C   0  0  0  0  0  0  0  0  0  0  0  0
    1.2478    0.6611    0.3970 C   0  0  0  0  0  0  0  0  0  0  0  0
    2.5497    0.1313    0.4529 N   0  0  0  0  0  0  0  0  0  0  0  0
    3.5210    0.8078   -0.4437 C   0  0  0  0  0  0  0  0  0  0  0  0
    4.9672    0.3856   -0.0950 C   0  0  0  0  0  0  0  0  0  0  0  0
    5.1736   -1.0762   -0.0977 N   0  0  0  0  0  0  0  0  0  0  0  0
    4.1923   -1.6984    0.8107 C   0  0  0  0  0  0  0  0  0  0  0  0
    2.7295   -1.3353    0.4675 C   0  0  0  0  0  0  0  0  0  0  0  0
    1.0038    2.0133    0.7157 C   0  0  0  0  0  0  0  0  0  0  0  0
    2.0147    2.8107    1.0984 F   0  0  0  0  0  0  0  0  0  0  0  0
   -0.2698    2.5697    0.6789 C   0  0  0  0  0  0  0  0  0  0  0  0
   -1.3565    1.7706    0.3245 C   0  0  0  0  0  0  0  0  0  0  0  0
   -2.7138    2.3731    0.2756 C   0  0  0  0  0  0  0  0  0  0  0  0
   -2.8868    3.5172    0.6806 O   0  0  0  0  0  0  0  0  0  0  0  0
   -6.1904    3.4868   -0.9801 H   0  0  0  0  0  0  0  0  0  0  0  0
   -4.3179   -0.4209   -0.8739 H   0  0  0  0  0  0  0  0  0  0  0  0
   -1.8251   -1.9152   -1.7093 H   0  0  0  0  0  0  0  0  0  0  0  0
   -3.9831   -2.5558    0.4480 H   0  0  0  0  0  0  0  0  0  0  0  0
   -3.4718   -3.6199   -0.9357 H   0  0  0  0  0  0  0  0  0  0  0  0
   -1.6539   -2.5588    1.3399 H   0  0  0  0  0  0  0  0  0  0  0  0
   -1.1277   -3.6419   -0.0262 H   0  0  0  0  0  0  0  0  0  0  0  0
    0.2667   -1.1614   -0.1980 H   0  0  0  0  0  0  0  0  0  0  0  0
    3.4680    1.8983   -0.3689 H   0  0  0  0  0  0  0  0  0  0  0  0
    3.3011    0.5397   -1.4857 H   0  0  0  0  0  0  0  0  0  0  0  0
    5.6541    0.8353   -0.8203 H   0  0  0  0  0  0  0  0  0  0  0  0
    5.2343    0.7846    0.8919 H   0  0  0  0  0  0  0  0  0  0  0  0
    6.1132   -1.2752    0.2439 H   0  0  0  0  0  0  0  0  0  0  0  0
    4.4124   -1.3968    1.8427 H   0  0  0  0  0  0  0  0  0  0  0  0
    4.3106   -2.7862    0.7608 H   0  0  0  0  0  0  0  0  0  0  0  0
    2.4728   -1.7606   -0.5113 H   0  0  0  0  0  0  0  0  0  0  0  0
    2.0819   -1.7909    1.2265 H   0  0  0  0  0  0  0  0  0  0  0  0
   -0.3999    3.6177    0.9332 H   0  0  0  0  0  0  0  0  0  0  0  0
  1  2  1  0
  2  3  2  0
  2  4  1  0
  4  5  2  0
  5  6  1  0
  6  7  1  0
  7  8  1  0
  8  9  1  0
  6 10  1  0
 10 11  1  0
 11 12  2  0
 12 13  1  0
 13 14  1  0
 14 15  1  0
 15 16  1  0
 16 17  1  0
 17 18  1  0
 12 19  1  0
 19 20  1  0
 19 21  2  0
 21 22  1  0
 22 23  1  0
 23 24  2  0
 23  4  1  0
  9  7  1  0
 22 10  2  0
 18 13  1  0
  1 25  1  0
  5 26  1  0
  7 27  1  0
  8 28  1  0
  8 29  1  0
  9 30  1  0
  9 31  1  0
 11 32  1  0
 14 33  1  0
 14 34  1  0
 15 35  1  0
 15 36  1  0
 16 37  1  0
 17 38  1  0
 17 39  1  0
 18 40  1  0
 18 41  1  0
 21 42  1  0
M  END
