
     RDKit          3D

 23 24  0  0  0  0  0  0  0  0999 V2000
   -3.4904   -0.3900    0.0852 C   0  0  0  0  0  0  0  0  0  0  0  0
   -2.8503    0.8647    0.6814 C   0  0  0  0  0  0  0  0  0  0  0  0
   -1.3955    0.7639    0.3950 N   0  0  0  0  0  0  0  0  0  0  0  0
   -1.2316   -0.4638   -0.0048 C   0  0  0  0  0  0  0  0  0  0  0  0
   -2.3405   -1.2586   -0.0691 N   0  0  0  0  0  0  0  0  0  0  0  0
   -0.0857   -1.0985   -0.3848 N   0  0  0  0  0  0  0  0  0  0  0  0
    1.1697   -0.4347   -0.3116 C   0  0  0  0  0  0  0  0  0  0  0  0
    2.1200   -0.8259    0.6527 C   0  0  0  0  0  0  0  0  0  0  0  0
    1.8168   -2.1790    1.6909 Cl  0  0  0  0  0  0  0  0  0  0  0  0
    3.3337   -0.1467    0.7981 C   0  0  0  0  0  0  0  0  0  0  0  0
    3.6220    0.9445   -0.0176 C   0  0  0  0  0  0  0  0  0  0  0  0
    2.7011    1.3481   -0.9829 C   0  0  0  0  0  0  0  0  0  0  0  0
    1.4854    0.6677   -1.1302 C   0  0  0  0  0  0  0  0  0  0  0  0
    0.4440    1.1803   -2.4173 Cl  0  0  0  0  0  0  0  0  0  0  0  0
   -3.9346   -0.1738   -0.8924 H   0  0  0  0  0  0  0  0  0  0  0  0
   -4.2504   -0.8235    0.7405 H   0  0  0  0  0  0  0  0  0  0  0  0
   -2.9978    0.9061    1.7663 H   0  0  0  0  0  0  0  0  0  0  0  0
   -3.2686    1.7737    0.2383 H   0  0  0  0  0  0  0  0  0  0  0  0
   -2.3650   -1.8453   -0.8953 H   0  0  0  0  0  0  0  0  0  0  0  0
   -0.0329   -2.0201    0.0386 H   0  0  0  0  0  0  0  0  0  0  0  0
    4.0537   -0.4611    1.5497 H   0  0  0  0  0  0  0  0  0  0  0  0
    4.5626    1.4781    0.0949 H   0  0  0  0  0  0  0  0  0  0  0  0
    2.9343    2.1939   -1.6256 H   0  0  0  0  0  0  0  0  0  0  0  0
  1  2  1  0
  2  3  1  0
  3  4  2  0
  4  5  1  0
  4  6  1  0
  6  7  1  0
  7  8  2  0
  8  9  1  0
  8 10  1  0
 10 11  2  0
 11 12  1  0
 12 13  2  0
 13 14  1  0
  5  1  1  0
 13  7  1  0
  1 15  1  0
  1 16  1  0
  2 17  1  0
  2 18  1  0
  5 19  1  0
  6 20  1  0
 10 21  1  0
 11 22  1  0
 12 23  1  0
M  END
