
     RDKit          3D

 37 39  0  0  0  0  0  0  0  0999 V2000
   -1.7194    3.4750    0.9313 C   0  0  0  0  0  0  0  0  0  0  0  0
   -1.1646    2.1604    0.9556 O   0  0  0  0  0  0  0  0  0  0  0  0
   -0.9289    1.6304   -0.2842 C   0  0  0  0  0  0  0  0  0  0  0  0
   -1.1608    2.2145   -1.3375 O   0  0  0  0  0  0  0  0  0  0  0  0
   -0.3621    0.1909   -0.1420 C   0  0  0  0  0  0  0  0  0  0  0  0
   -1.5573   -0.7625   -0.0661 C   0  0  0  0  0  0  0  0  0  0  0  0
   -2.3075   -1.0198   -1.2339 C   0  0  0  0  0  0  0  0  0  0  0  0
   -3.4193   -1.8626   -1.2093 C   0  0  0  0  0  0  0  0  0  0  0  0
   -3.8110   -2.4595   -0.0160 C   0  0  0  0  0  0  0  0  0  0  0  0
   -3.0930   -2.2084    1.1523 C   0  0  0  0  0  0  0  0  0  0  0  0
   -1.9771   -1.3628    1.1324 C   0  0  0  0  0  0  0  0  0  0  0  0
   -1.1663   -1.1020    2.6355 Cl  0  0  0  0  0  0  0  0  0  0  0  0
    0.5755   -0.1521   -1.2676 N   0  0  0  0  0  0  0  0  0  0  0  0
    1.1433   -1.5233   -1.1497 C   0  0  0  0  0  0  0  0  0  0  0  0
    2.0615   -1.7685    0.0708 C   0  0  0  0  0  0  0  0  0  0  0  0
    2.9109   -0.5615    0.3049 C   0  0  0  0  0  0  0  0  0  0  0  0
    4.1650   -0.5218    1.4470 S   0  0  0  0  0  0  0  0  0  0  0  0
    4.4986    1.1196    1.0900 C   0  0  0  0  0  0  0  0  0  0  0  0
    3.6603    1.6205    0.1161 C   0  0  0  0  0  0  0  0  0  0  0  0
    2.7272    0.6427   -0.3461 C   0  0  0  0  0  0  0  0  0  0  0  0
    1.6822    0.8281   -1.4110 C   0  0  0  0  0  0  0  0  0  0  0  0
   -2.6902    3.4723    0.4258 H   0  0  0  0  0  0  0  0  0  0  0  0
   -1.0301    4.1731    0.4460 H   0  0  0  0  0  0  0  0  0  0  0  0
   -1.8688    3.7989    1.9650 H   0  0  0  0  0  0  0  0  0  0  0  0
    0.2131    0.1774    0.7882 H   0  0  0  0  0  0  0  0  0  0  0  0
   -2.0185   -0.5560   -2.1778 H   0  0  0  0  0  0  0  0  0  0  0  0
   -3.9787   -2.0483   -2.1231 H   0  0  0  0  0  0  0  0  0  0  0  0
   -4.6776   -3.1153    0.0070 H   0  0  0  0  0  0  0  0  0  0  0  0
   -3.4121   -2.6737    2.0821 H   0  0  0  0  0  0  0  0  0  0  0  0
    0.3524   -2.2817   -1.1647 H   0  0  0  0  0  0  0  0  0  0  0  0
    1.7229   -1.7171   -2.0637 H   0  0  0  0  0  0  0  0  0  0  0  0
    2.6818   -2.6533   -0.1110 H   0  0  0  0  0  0  0  0  0  0  0  0
    1.4524   -1.9626    0.9607 H   0  0  0  0  0  0  0  0  0  0  0  0
    5.2929    1.6363    1.6109 H   0  0  0  0  0  0  0  0  0  0  0  0
    3.7185    2.6394   -0.2476 H   0  0  0  0  0  0  0  0  0  0  0  0
    1.3281    1.8631   -1.4223 H   0  0  0  0  0  0  0  0  0  0  0  0
    2.1566    0.6703   -2.3886 H   0  0  0  0  0  0  0  0  0  0  0  0
  1  2  1  0
  2  3  1  0
  3  4  2  0
  3  5  1  0
  5  6  1  0
  6  7  2  0
  7  8  1  0
  8  9  2  0
  9 10  1  0
 10 11  2  0
 11 12  1  0
  5 13  1  0
 13 14  1  0
 14 15  1  0
 15 16  1  0
 16 17  1  0
 17 18  1  0
 18 19  2  0
 19 20  1  0
 20 21  1  0
 11  6  1  0
 21 13  1  0
 20 16  2  0
  1 22  1  0
  1 23  1  0
  1 24  1  0
  5 25  1  0
  7 26  1  0
  8 27  1  0
  9 28  1  0
 10 29  1  0
 14 30  1  0
 14 31  1  0
 15 32  1  0
 15 33  1  0
 18 34  1  0
 19 35  1  0
 21 36  1  0
 21 37  1  0
M  END
