
     RDKit          3D

 43 45  0  0  0  0  0  0  0  0999 V2000
   -0.5252    3.6712   -0.8450 C   0  0  0  0  0  0  0  0  0  0  0  0
   -0.9072    2.3342   -1.1701 O   0  0  0  0  0  0  0  0  0  0  0  0
   -0.6224    1.4215   -0.1964 C   0  0  0  0  0  0  0  0  0  0  0  0
   -0.1287    1.6959    0.8895 O   0  0  0  0  0  0  0  0  0  0  0  0
   -1.0564    0.0422   -0.6401 C   0  0  1  0  0  0  0  0  0  0  0  0
   -0.2066   -1.0939   -0.0243 C   0  0  1  0  0  0  0  0  0  0  0  0
    1.1629   -0.7335    0.2451 O   0  0  0  0  0  0  0  0  0  0  0  0
    1.9760   -0.5726   -0.8262 C   0  0  0  0  0  0  0  0  0  0  0  0
    1.6601   -0.7286   -1.9945 O   0  0  0  0  0  0  0  0  0  0  0  0
    3.3378   -0.1712   -0.3862 C   0  0  0  0  0  0  0  0  0  0  0  0
    4.3769   -0.2101   -1.3256 C   0  0  0  0  0  0  0  0  0  0  0  0
    5.6708    0.1648   -0.9585 C   0  0  0  0  0  0  0  0  0  0  0  0
    5.9313    0.5844    0.3456 C   0  0  0  0  0  0  0  0  0  0  0  0
    4.9005    0.6331    1.2839 C   0  0  0  0  0  0  0  0  0  0  0  0
    3.6048    0.2581    0.9211 C   0  0  0  0  0  0  0  0  0  0  0  0
   -0.8140   -1.6759    1.2626 C   0  0  0  0  0  0  0  0  0  0  0  0
   -2.3542   -1.7553    1.2176 C   0  0  1  0  0  0  0  0  0  0  0  0
   -2.9793   -0.5469    1.9229 C   0  0  0  0  0  0  0  0  0  0  0  0
   -3.1778    0.4794    0.8156 C   0  0  0  0  0  0  0  0  0  0  0  0
   -2.5787   -0.1758   -0.4377 C   0  0  2  0  0  0  0  0  0  0  0  0
   -2.7781   -1.6245   -0.1918 N   0  0  0  0  0  0  0  0  0  0  0  0
   -4.1502   -2.0709   -0.4206 C   0  0  0  0  0  0  0  0  0  0  0  0
    0.5532    3.7304   -0.6674 H   0  0  0  0  0  0  0  0  0  0  0  0
   -1.0832    4.0262    0.0270 H   0  0  0  0  0  0  0  0  0  0  0  0
   -0.7711    4.3105   -1.6974 H   0  0  0  0  0  0  0  0  0  0  0  0
   -0.8525   -0.0040   -1.7203 H   0  0  0  0  0  0  0  0  0  0  0  0
   -0.1855   -1.9241   -0.7473 H   0  0  0  0  0  0  0  0  0  0  0  0
    4.1814   -0.5339   -2.3461 H   0  0  0  0  0  0  0  0  0  0  0  0
    6.4740    0.1305   -1.6904 H   0  0  0  0  0  0  0  0  0  0  0  0
    6.9389    0.8775    0.6305 H   0  0  0  0  0  0  0  0  0  0  0  0
    5.1037    0.9668    2.2986 H   0  0  0  0  0  0  0  0  0  0  0  0
    2.8110    0.3152    1.6628 H   0  0  0  0  0  0  0  0  0  0  0  0
   -0.4066   -2.6883    1.3892 H   0  0  0  0  0  0  0  0  0  0  0  0
   -0.4631   -1.1162    2.1382 H   0  0  0  0  0  0  0  0  0  0  0  0
   -2.6781   -2.6940    1.6815 H   0  0  0  0  0  0  0  0  0  0  0  0
   -3.9514   -0.8112    2.3560 H   0  0  0  0  0  0  0  0  0  0  0  0
   -2.3584   -0.1510    2.7328 H   0  0  0  0  0  0  0  0  0  0  0  0
   -2.7527    1.4505    1.0781 H   0  0  0  0  0  0  0  0  0  0  0  0
   -4.2526    0.6489    0.6715 H   0  0  0  0  0  0  0  0  0  0  0  0
   -3.1024    0.1706   -1.3372 H   0  0  0  0  0  0  0  0  0  0  0  0
   -4.8958   -1.5620    0.1982 H   0  0  0  0  0  0  0  0  0  0  0  0
   -4.2289   -3.1460   -0.2252 H   0  0  0  0  0  0  0  0  0  0  0  0
   -4.4223   -1.9218   -1.4712 H   0  0  0  0  0  0  0  0  0  0  0  0
  1  2  1  0
  2  3  1  0
  3  4  2  0
  3  5  1  0
  5  6  1  0
  6  7  1  0
  7  8  1  0
  8  9  2  0
  8 10  1  0
 10 11  2  0
 11 12  1  0
 12 13  2  0
 13 14  1  0
 14 15  2  0
  6 16  1  0
 16 17  1  0
 17 18  1  0
 18 19  1  0
 19 20  1  0
 20 21  1  0
 21 22  1  0
 20  5  1  0
 15 10  1  0
 21 17  1  0
  1 23  1  0
  1 24  1  0
  1 25  1  0
  5 26  1  6
  6 27  1  6
 11 28  1  0
 12 29  1  0
 13 30  1  0
 14 31  1  0
 15 32  1  0
 16 33  1  0
 16 34  1  0
 17 35  1  1
 18 36  1  0
 18 37  1  0
 19 38  1  0
 19 39  1  0
 20 40  1  6
 22 41  1  0
 22 42  1  0
 22 43  1  0
M  END
