
     RDKit          3D

 42 44  0  0  0  0  0  0  0  0999 V2000
    4.1304    1.2409    0.6547 C   0  0  0  0  0  0  0  0  0  0  0  0
    4.0962   -0.2218    0.7295 N   0  0  0  0  0  0  0  0  0  0  0  0
    5.2025   -0.7804   -0.0527 C   0  0  0  0  0  0  0  0  0  0  0  0
    2.8133   -0.7681    0.2455 C   0  0  0  0  0  0  0  0  0  0  0  0
    1.6167   -0.4254    1.1495 C   0  0  0  0  0  0  0  0  0  0  0  0
    0.3656   -1.1271    0.6903 C   0  0  0  0  0  0  0  0  0  0  0  0
   -0.7071   -0.5588    0.1210 C   0  0  0  0  0  0  0  0  0  0  0  0
   -1.9829   -1.3947   -0.2177 C   0  0  0  0  0  0  0  0  0  0  0  0
   -1.9559   -2.3267   -1.2598 C   0  0  0  0  0  0  0  0  0  0  0  0
   -3.1182   -3.0160   -1.6059 C   0  0  0  0  0  0  0  0  0  0  0  0
   -4.3079   -2.7663   -0.9217 C   0  0  0  0  0  0  0  0  0  0  0  0
   -4.3393   -1.8284    0.1130 C   0  0  0  0  0  0  0  0  0  0  0  0
   -3.1784   -1.1359    0.4706 C   0  0  0  0  0  0  0  0  0  0  0  0
   -3.2504   -0.1239    1.6680 C   0  0  0  0  0  0  0  0  0  0  0  0
   -2.6702    1.0853    1.6974 C   0  0  0  0  0  0  0  0  0  0  0  0
   -1.8183    1.7088    0.5371 C   0  0  0  0  0  0  0  0  0  0  0  0
   -2.0071    3.0587    0.2240 C   0  0  0  0  0  0  0  0  0  0  0  0
   -1.2513    3.6589   -0.7857 C   0  0  0  0  0  0  0  0  0  0  0  0
   -0.3074    2.9133   -1.4916 C   0  0  0  0  0  0  0  0  0  0  0  0
   -0.1159    1.5651   -1.1898 C   0  0  0  0  0  0  0  0  0  0  0  0
   -0.8587    0.9660   -0.1670 C   0  0  0  0  0  0  0  0  0  0  0  0
    3.3982    1.6911    1.3318 H   0  0  0  0  0  0  0  0  0  0  0  0
    3.9398    1.6076   -0.3604 H   0  0  0  0  0  0  0  0  0  0  0  0
    5.1076    1.6191    0.9767 H   0  0  0  0  0  0  0  0  0  0  0  0
    6.1646   -0.4167    0.3256 H   0  0  0  0  0  0  0  0  0  0  0  0
    5.1291   -0.5227   -1.1155 H   0  0  0  0  0  0  0  0  0  0  0  0
    5.2266   -1.8722    0.0377 H   0  0  0  0  0  0  0  0  0  0  0  0
    2.8940   -1.8632    0.2066 H   0  0  0  0  0  0  0  0  0  0  0  0
    2.6154   -0.4326   -0.7815 H   0  0  0  0  0  0  0  0  0  0  0  0
    1.8268   -0.7455    2.1778 H   0  0  0  0  0  0  0  0  0  0  0  0
    1.4600    0.6565    1.1917 H   0  0  0  0  0  0  0  0  0  0  0  0
    0.3439   -2.1990    0.8804 H   0  0  0  0  0  0  0  0  0  0  0  0
   -1.0366   -2.5084   -1.8094 H   0  0  0  0  0  0  0  0  0  0  0  0
   -3.0987   -3.7407   -2.4156 H   0  0  0  0  0  0  0  0  0  0  0  0
   -5.2141   -3.3004   -1.1959 H   0  0  0  0  0  0  0  0  0  0  0  0
   -5.2732   -1.6426    0.6368 H   0  0  0  0  0  0  0  0  0  0  0  0
   -3.7913   -0.4477    2.5543 H   0  0  0  0  0  0  0  0  0  0  0  0
   -2.7732    1.6751    2.6054 H   0  0  0  0  0  0  0  0  0  0  0  0
   -2.7440    3.6493    0.7618 H   0  0  0  0  0  0  0  0  0  0  0  0
   -1.4045    4.7079   -1.0256 H   0  0  0  0  0  0  0  0  0  0  0  0
    0.2709    3.3796   -2.2848 H   0  0  0  0  0  0  0  0  0  0  0  0
    0.6030    0.9823   -1.7584 H   0  0  0  0  0  0  0  0  0  0  0  0
  1  2  1  0
  2  3  1  0
  2  4  1  0
  4  5  1  0
  5  6  1  0
  6  7  2  3
  7  8  1  0
  8  9  2  0
  9 10  1  0
 10 11  2  0
 11 12  1  0
 12 13  2  0
 13 14  1  0
 14 15  2  0
 15 16  1  0
 16 17  2  0
 17 18  1  0
 18 19  2  0
 19 20  1  0
 20 21  2  0
 21  7  1  0
 13  8  1  0
 21 16  1  0
  1 22  1  0
  1 23  1  0
  1 24  1  0
  3 25  1  0
  3 26  1  0
  3 27  1  0
  4 28  1  0
  4 29  1  0
  5 30  1  0
  5 31  1  0
  6 32  1  0
  9 33  1  0
 10 34  1  0
 11 35  1  0
 12 36  1  0
 14 37  1  0
 15 38  1  0
 17 39  1  0
 18 40  1  0
 19 41  1  0
 20 42  1  0
M  END
