
     RDKit          3D

 33 35  0  0  0  0  0  0  0  0999 V2000
   -3.4379   -0.6201   -1.3975 C   0  0  0  0  0  0  0  0  0  0  0  0
   -2.2987   -0.9014   -0.5338 N   0  0  0  0  0  0  0  0  0  0  0  0
   -1.7767    0.1414    0.2948 C   0  0  0  0  0  0  0  0  0  0  0  0
   -2.6361    1.1727    0.7211 C   0  0  0  0  0  0  0  0  0  0  0  0
   -2.1930    2.1866    1.5770 C   0  0  0  0  0  0  0  0  0  0  0  0
   -0.8778    2.1896    2.0211 C   0  0  0  0  0  0  0  0  0  0  0  0
   -0.3352    3.4254    3.0852 Cl  0  0  0  0  0  0  0  0  0  0  0  0
    0.0037    1.2025    1.5973 C   0  0  0  0  0  0  0  0  0  0  0  0
   -0.4323    0.1958    0.7153 C   0  0  0  0  0  0  0  0  0  0  0  0
    0.6021   -0.7527    0.2076 C   0  0  0  0  0  0  0  0  0  0  0  0
    0.4501   -2.0335    0.1693 N   0  0  0  0  0  0  0  0  0  0  0  0
   -0.8348   -2.5824    0.5896 C   0  0  0  0  0  0  0  0  0  0  0  0
   -1.8928   -2.2394   -0.4500 C   0  0  0  0  0  0  0  0  0  0  0  0
   -2.4105   -3.1290   -1.1321 O   0  0  0  0  0  0  0  0  0  0  0  0
    1.9055   -0.2019   -0.2856 C   0  0  0  0  0  0  0  0  0  0  0  0
    3.0777   -0.9374   -0.0727 C   0  0  0  0  0  0  0  0  0  0  0  0
    4.3044   -0.4465   -0.5223 C   0  0  0  0  0  0  0  0  0  0  0  0
    4.3630    0.7738   -1.1945 C   0  0  0  0  0  0  0  0  0  0  0  0
    3.1958    1.5013   -1.4266 C   0  0  0  0  0  0  0  0  0  0  0  0
    1.9660    1.0139   -0.9788 C   0  0  0  0  0  0  0  0  0  0  0  0
   -3.3668    0.3913   -1.8101 H   0  0  0  0  0  0  0  0  0  0  0  0
   -3.4703   -1.3160   -2.2418 H   0  0  0  0  0  0  0  0  0  0  0  0
   -4.3609   -0.7363   -0.8208 H   0  0  0  0  0  0  0  0  0  0  0  0
   -3.6849    1.1871    0.4336 H   0  0  0  0  0  0  0  0  0  0  0  0
   -2.8869    2.9581    1.9029 H   0  0  0  0  0  0  0  0  0  0  0  0
    1.0342    1.2220    1.9462 H   0  0  0  0  0  0  0  0  0  0  0  0
   -1.1394   -2.2558    1.5903 H   0  0  0  0  0  0  0  0  0  0  0  0
   -0.7464   -3.6737    0.6359 H   0  0  0  0  0  0  0  0  0  0  0  0
    3.0379   -1.8949    0.4421 H   0  0  0  0  0  0  0  0  0  0  0  0
    5.2121   -1.0205   -0.3536 H   0  0  0  0  0  0  0  0  0  0  0  0
    5.3190    1.1523   -1.5485 H   0  0  0  0  0  0  0  0  0  0  0  0
    3.2435    2.4442   -1.9659 H   0  0  0  0  0  0  0  0  0  0  0  0
    1.0664    1.5834   -1.1948 H   0  0  0  0  0  0  0  0  0  0  0  0
  1  2  1  0
  2  3  1  0
  3  4  1  0
  4  5  2  0
  5  6  1  0
  6  7  1  0
  6  8  2  0
  8  9  1  0
  9 10  1  0
 10 11  2  0
 11 12  1  0
 12 13  1  0
 13 14  2  0
 10 15  1  0
 15 16  2  0
 16 17  1  0
 17 18  2  0
 18 19  1  0
 19 20  2  0
 13  2  1  0
 20 15  1  0
  9  3  2  0
  1 21  1  0
  1 22  1  0
  1 23  1  0
  4 24  1  0
  5 25  1  0
  8 26  1  0
 12 27  1  0
 12 28  1  0
 16 29  1  0
 17 30  1  0
 18 31  1  0
 19 32  1  0
 20 33  1  0
M  END
