
     RDKit          3D

 55 57  0  0  0  0  0  0  0  0999 V2000
    0.9539   -0.2424    4.6797 C   0  0  0  0  0  0  0  0  0  0  0  0
    0.4288    0.2648    3.3727 C   0  0  0  0  0  0  0  0  0  0  0  0
   -0.2998    1.2390    3.2468 O   0  0  0  0  0  0  0  0  0  0  0  0
    0.8905   -0.5061    2.3521 O   0  0  0  0  0  0  0  0  0  0  0  0
    0.3828   -0.1429    1.0461 C   0  0  1  0  0  0  0  0  0  0  0  0
    1.2187   -0.8877   -0.0068 C   0  0  2  0  0  0  0  0  0  0  0  0
    2.6667   -0.4044   -0.0740 C   0  0  0  0  0  0  0  0  0  0  0  0
    3.7132   -1.3392   -0.0087 C   0  0  0  0  0  0  0  0  0  0  0  0
    5.0519   -0.9333   -0.0728 C   0  0  0  0  0  0  0  0  0  0  0  0
    5.3695    0.4163   -0.2087 C   0  0  0  0  0  0  0  0  0  0  0  0
    6.6281    0.9455   -0.2826 O   0  0  0  0  0  0  0  0  0  0  0  0
    7.7139    0.0288   -0.2297 C   0  0  0  0  0  0  0  0  0  0  0  0
    4.3371    1.3519   -0.2826 C   0  0  0  0  0  0  0  0  0  0  0  0
    2.9995    0.9505   -0.2199 C   0  0  0  0  0  0  0  0  0  0  0  0
    0.5044   -0.9375   -1.7038 S   0  0  0  0  0  0  0  0  0  0  0  0
   -0.2983    0.6590   -1.7667 C   0  0  0  0  0  0  0  0  0  0  0  0
    0.1396    1.5395   -2.7678 C   0  0  0  0  0  0  0  0  0  0  0  0
   -0.4881    2.7688   -2.9601 C   0  0  0  0  0  0  0  0  0  0  0  0
   -1.5712    3.1227   -2.1642 C   0  0  0  0  0  0  0  0  0  0  0  0
   -2.0266    2.2485   -1.1749 C   0  0  0  0  0  0  0  0  0  0  0  0
   -1.3989    1.0115   -0.9560 C   0  0  0  0  0  0  0  0  0  0  0  0
   -1.9030    0.1554    0.0729 N   0  0  0  0  0  0  0  0  0  0  0  0
   -3.3427   -0.1487    0.0782 C   0  0  0  0  0  0  0  0  0  0  0  0
   -3.6844   -1.3337   -0.8546 C   0  0  0  0  0  0  0  0  0  0  0  0
   -5.0922   -1.7669   -0.9150 N   0  0  0  0  0  0  0  0  0  0  0  0
   -5.9861   -0.7262   -1.4112 C   0  0  0  0  0  0  0  0  0  0  0  0
   -5.5624   -2.3046    0.3591 C   0  0  0  0  0  0  0  0  0  0  0  0
   -1.0873   -0.5799    0.9383 C   0  0  0  0  0  0  0  0  0  0  0  0
   -1.5263   -1.5007    1.6348 O   0  0  0  0  0  0  0  0  0  0  0  0
    2.0450   -0.1811    4.6895 H   0  0  0  0  0  0  0  0  0  0  0  0
    0.6242   -1.2729    4.8363 H   0  0  0  0  0  0  0  0  0  0  0  0
    0.5609    0.3755    5.4924 H   0  0  0  0  0  0  0  0  0  0  0  0
    0.4636    0.9449    0.9396 H   0  0  0  0  0  0  0  0  0  0  0  0
    1.2493   -1.9417    0.3018 H   0  0  0  0  0  0  0  0  0  0  0  0
    3.4962   -2.4013    0.0921 H   0  0  0  0  0  0  0  0  0  0  0  0
    5.8185   -1.6987   -0.0156 H   0  0  0  0  0  0  0  0  0  0  0  0
    7.6858   -0.6657   -1.0760 H   0  0  0  0  0  0  0  0  0  0  0  0
    7.7304   -0.5094    0.7240 H   0  0  0  0  0  0  0  0  0  0  0  0
    8.6416    0.6047   -0.3024 H   0  0  0  0  0  0  0  0  0  0  0  0
    4.5764    2.4068   -0.3949 H   0  0  0  0  0  0  0  0  0  0  0  0
    2.2311    1.7159   -0.2953 H   0  0  0  0  0  0  0  0  0  0  0  0
    0.9720    1.2679   -3.4153 H   0  0  0  0  0  0  0  0  0  0  0  0
   -0.1363    3.4438   -3.7367 H   0  0  0  0  0  0  0  0  0  0  0  0
   -2.0624    4.0823   -2.3088 H   0  0  0  0  0  0  0  0  0  0  0  0
   -2.8530    2.5742   -0.5480 H   0  0  0  0  0  0  0  0  0  0  0  0
   -3.6327   -0.3888    1.1076 H   0  0  0  0  0  0  0  0  0  0  0  0
   -3.9182    0.7370   -0.2018 H   0  0  0  0  0  0  0  0  0  0  0  0
   -3.0692   -2.2003   -0.5791 H   0  0  0  0  0  0  0  0  0  0  0  0
   -3.3629   -1.0827   -1.8743 H   0  0  0  0  0  0  0  0  0  0  0  0
   -6.9870   -1.1368   -1.5855 H   0  0  0  0  0  0  0  0  0  0  0  0
   -5.6350   -0.3397   -2.3743 H   0  0  0  0  0  0  0  0  0  0  0  0
   -6.0835    0.1137   -0.7152 H   0  0  0  0  0  0  0  0  0  0  0  0
   -4.8997   -3.1022    0.7129 H   0  0  0  0  0  0  0  0  0  0  0  0
   -6.5546   -2.7538    0.2381 H   0  0  0  0  0  0  0  0  0  0  0  0
   -5.6319   -1.5395    1.1396 H   0  0  0  0  0  0  0  0  0  0  0  0
  1  2  1  0
  2  3  2  0
  2  4  1  0
  4  5  1  0
  5  6  1  0
  6  7  1  0
  7  8  1  0
  8  9  2  0
  9 10  1  0
 10 11  1  0
 11 12  1  0
 10 13  2  0
 13 14  1  0
  6 15  1  0
 15 16  1  0
 16 17  2  0
 17 18  1  0
 18 19  2  0
 19 20  1  0
 20 21  2  0
 21 22  1  0
 22 23  1  0
 23 24  1  0
 24 25  1  0
 25 26  1  0
 25 27  1  0
 22 28  1  0
 28 29  2  0
 28  5  1  0
 14  7  2  0
 21 16  1  0
  1 30  1  0
  1 31  1  0
  1 32  1  0
  5 33  1  6
  6 34  1  1
  8 35  1  0
  9 36  1  0
 12 37  1  0
 12 38  1  0
 12 39  1  0
 13 40  1  0
 14 41  1  0
 17 42  1  0
 18 43  1  0
 19 44  1  0
 20 45  1  0
 23 46  1  0
 23 47  1  0
 24 48  1  0
 24 49  1  0
 26 50  1  0
 26 51  1  0
 26 52  1  0
 27 53  1  0
 27 54  1  0
 27 55  1  0
M  END
