
     RDKit          3D

 40 41  0  0  0  0  0  0  0  0999 V2000
   -3.7215   -1.2948   -1.5639 C   0  0  0  0  0  0  0  0  0  0  0  0
   -2.8824   -1.0097   -0.3994 N   0  0  0  0  0  0  0  0  0  0  0  0
   -3.4885   -1.5699    0.8083 C   0  0  0  0  0  0  0  0  0  0  0  0
   -2.6472    0.4419   -0.2797 C   0  0  0  0  0  0  0  0  0  0  0  0
   -1.6871    0.8719    0.8518 C   0  0  0  0  0  0  0  0  0  0  0  0
   -0.4886    0.0996    0.9428 O   0  0  0  0  0  0  0  0  0  0  0  0
    0.4398    0.2875   -0.1374 C   0  0  0  0  0  0  0  0  0  0  0  0
    1.3070   -0.9661   -0.2778 C   0  0  0  0  0  0  0  0  0  0  0  0
    0.7698   -2.2300    0.0265 C   0  0  0  0  0  0  0  0  0  0  0  0
    1.5223   -3.3952   -0.1385 C   0  0  0  0  0  0  0  0  0  0  0  0
    2.8235   -3.3207   -0.6264 C   0  0  0  0  0  0  0  0  0  0  0  0
    3.3686   -2.0828   -0.9562 C   0  0  0  0  0  0  0  0  0  0  0  0
    2.6148   -0.9170   -0.7923 C   0  0  0  0  0  0  0  0  0  0  0  0
    1.2190    1.5717    0.1201 C   0  0  0  0  0  0  0  0  0  0  0  0
    1.8475    1.7977    1.3559 C   0  0  0  0  0  0  0  0  0  0  0  0
    2.5636    2.9730    1.5851 C   0  0  0  0  0  0  0  0  0  0  0  0
    2.6611    3.9362    0.5828 C   0  0  0  0  0  0  0  0  0  0  0  0
    2.0438    3.7258   -0.6491 C   0  0  0  0  0  0  0  0  0  0  0  0
    1.3265    2.5507   -0.8811 C   0  0  0  0  0  0  0  0  0  0  0  0
   -3.8512   -2.3754   -1.6907 H   0  0  0  0  0  0  0  0  0  0  0  0
   -3.2461   -0.9290   -2.4809 H   0  0  0  0  0  0  0  0  0  0  0  0
   -4.7130   -0.8351   -1.4814 H   0  0  0  0  0  0  0  0  0  0  0  0
   -4.4404   -1.0859    1.0542 H   0  0  0  0  0  0  0  0  0  0  0  0
   -2.8178   -1.4779    1.6684 H   0  0  0  0  0  0  0  0  0  0  0  0
   -3.6723   -2.6433    0.6836 H   0  0  0  0  0  0  0  0  0  0  0  0
   -3.5968    0.9779   -0.1501 H   0  0  0  0  0  0  0  0  0  0  0  0
   -2.2234    0.7973   -1.2268 H   0  0  0  0  0  0  0  0  0  0  0  0
   -1.4435    1.9356    0.7495 H   0  0  0  0  0  0  0  0  0  0  0  0
   -2.1976    0.7677    1.8156 H   0  0  0  0  0  0  0  0  0  0  0  0
   -0.1042    0.3722   -1.0851 H   0  0  0  0  0  0  0  0  0  0  0  0
   -0.2517   -2.3110    0.3957 H   0  0  0  0  0  0  0  0  0  0  0  0
    1.0868   -4.3587    0.1115 H   0  0  0  0  0  0  0  0  0  0  0  0
    3.4097   -4.2263   -0.7545 H   0  0  0  0  0  0  0  0  0  0  0  0
    4.3817   -2.0214   -1.3447 H   0  0  0  0  0  0  0  0  0  0  0  0
    3.0682    0.0320   -1.0697 H   0  0  0  0  0  0  0  0  0  0  0  0
    1.7758    1.0485    2.1429 H   0  0  0  0  0  0  0  0  0  0  0  0
    3.0454    3.1343    2.5458 H   0  0  0  0  0  0  0  0  0  0  0  0
    3.2201    4.8508    0.7621 H   0  0  0  0  0  0  0  0  0  0  0  0
    2.1230    4.4772   -1.4304 H   0  0  0  0  0  0  0  0  0  0  0  0
    0.8554    2.4008   -1.8499 H   0  0  0  0  0  0  0  0  0  0  0  0
  1  2  1  0
  2  3  1  0
  2  4  1  0
  4  5  1  0
  5  6  1  0
  6  7  1  0
  7  8  1  0
  8  9  2  0
  9 10  1  0
 10 11  2  0
 11 12  1  0
 12 13  2  0
  7 14  1  0
 14 15  2  0
 15 16  1  0
 16 17  2  0
 17 18  1  0
 18 19  2  0
 13  8  1  0
 19 14  1  0
  1 20  1  0
  1 21  1  0
  1 22  1  0
  3 23  1  0
  3 24  1  0
  3 25  1  0
  4 26  1  0
  4 27  1  0
  5 28  1  0
  5 29  1  0
  7 30  1  0
  9 31  1  0
 10 32  1  0
 11 33  1  0
 12 34  1  0
 13 35  1  0
 15 36  1  0
 16 37  1  0
 17 38  1  0
 18 39  1  0
 19 40  1  0
M  END
