
     RDKit          3D

 57 60  0  0  0  0  0  0  0  0999 V2000
   -7.6616    0.0268   -2.1559 C   0  0  0  0  0  0  0  0  0  0  0  0
   -7.0598    0.8723   -1.1868 O   0  0  0  0  0  0  0  0  0  0  0  0
   -5.7676    0.5958   -0.8088 C   0  0  0  0  0  0  0  0  0  0  0  0
   -5.0051   -0.4618   -1.3307 C   0  0  0  0  0  0  0  0  0  0  0  0
   -3.7084   -0.6411   -0.8728 C   0  0  0  0  0  0  0  0  0  0  0  0
   -3.1918    0.2151    0.0852 C   0  0  0  0  0  0  0  0  0  0  0  0
   -3.9077    1.2673    0.6267 C   0  0  0  0  0  0  0  0  0  0  0  0
   -5.2153    1.4637    0.1741 C   0  0  0  0  0  0  0  0  0  0  0  0
   -6.0428    2.4662    0.6200 O   0  0  0  0  0  0  0  0  0  0  0  0
   -5.5278    3.3559    1.6010 C   0  0  0  0  0  0  0  0  0  0  0  0
   -1.8264   -0.1919    0.3836 C   0  0  0  0  0  0  0  0  0  0  0  0
   -1.1296    0.3647    1.2142 O   0  0  0  0  0  0  0  0  0  0  0  0
   -1.4435   -1.3832   -0.4804 C   0  0  0  0  0  0  0  0  0  0  0  0
   -0.2686   -1.0684   -1.4180 C   0  0  0  0  0  0  0  0  0  0  0  0
    1.0951   -0.9167   -0.7175 C   0  0  0  0  0  0  0  0  0  0  0  0
    2.1884   -0.5328   -1.7215 C   0  0  0  0  0  0  0  0  0  0  0  0
    3.5227   -0.2885   -1.0008 C   0  0  0  0  0  0  0  0  0  0  0  0
    3.8666   -1.2813    0.0328 N   0  0  0  0  0  0  0  0  0  0  0  0
    3.8833   -0.7017    1.3877 C   0  0  0  0  0  0  0  0  0  0  0  0
    5.0264    0.2694    1.6111 C   0  0  0  0  0  0  0  0  0  0  0  0
    4.7809    1.5494    2.1295 C   0  0  0  0  0  0  0  0  0  0  0  0
    5.8350    2.4362    2.3573 C   0  0  0  0  0  0  0  0  0  0  0  0
    7.1448    2.0520    2.0754 C   0  0  0  0  0  0  0  0  0  0  0  0
    7.4029    0.7808    1.5665 C   0  0  0  0  0  0  0  0  0  0  0  0
    6.3503   -0.1069    1.3386 C   0  0  0  0  0  0  0  0  0  0  0  0
    3.0172   -2.4711   -0.0356 C   0  0  0  0  0  0  0  0  0  0  0  0
    1.5140   -2.1811    0.0555 C   0  0  0  0  0  0  0  0  0  0  0  0
   -2.7348   -1.7001   -1.2808 C   0  0  0  0  0  0  0  0  0  0  0  0
   -8.6796    0.3885   -2.3297 H   0  0  0  0  0  0  0  0  0  0  0  0
   -7.1252    0.0742   -3.1091 H   0  0  0  0  0  0  0  0  0  0  0  0
   -7.7330   -1.0033   -1.7916 H   0  0  0  0  0  0  0  0  0  0  0  0
   -5.3975   -1.1412   -2.0785 H   0  0  0  0  0  0  0  0  0  0  0  0
   -3.4355    1.8949    1.3727 H   0  0  0  0  0  0  0  0  0  0  0  0
   -5.2798    2.8239    2.5254 H   0  0  0  0  0  0  0  0  0  0  0  0
   -6.3108    4.0833    1.8365 H   0  0  0  0  0  0  0  0  0  0  0  0
   -4.6644    3.9096    1.2179 H   0  0  0  0  0  0  0  0  0  0  0  0
   -1.2197   -2.2318    0.1752 H   0  0  0  0  0  0  0  0  0  0  0  0
   -0.1882   -1.8660   -2.1684 H   0  0  0  0  0  0  0  0  0  0  0  0
   -0.4847   -0.1428   -1.9682 H   0  0  0  0  0  0  0  0  0  0  0  0
    1.0216   -0.0903    0.0001 H   0  0  0  0  0  0  0  0  0  0  0  0
    2.3069   -1.3249   -2.4722 H   0  0  0  0  0  0  0  0  0  0  0  0
    1.9053    0.3757   -2.2666 H   0  0  0  0  0  0  0  0  0  0  0  0
    3.5071    0.7305   -0.5945 H   0  0  0  0  0  0  0  0  0  0  0  0
    4.3221   -0.2926   -1.7515 H   0  0  0  0  0  0  0  0  0  0  0  0
    4.0138   -1.4974    2.1336 H   0  0  0  0  0  0  0  0  0  0  0  0
    2.9245   -0.2193    1.6164 H   0  0  0  0  0  0  0  0  0  0  0  0
    3.7648    1.8643    2.3564 H   0  0  0  0  0  0  0  0  0  0  0  0
    5.6333    3.4270    2.7557 H   0  0  0  0  0  0  0  0  0  0  0  0
    7.9644    2.7430    2.2526 H   0  0  0  0  0  0  0  0  0  0  0  0
    8.4229    0.4788    1.3455 H   0  0  0  0  0  0  0  0  0  0  0  0
    6.5593   -1.0967    0.9379 H   0  0  0  0  0  0  0  0  0  0  0  0
    3.2241   -2.9868   -0.9830 H   0  0  0  0  0  0  0  0  0  0  0  0
    3.3001   -3.1943    0.7396 H   0  0  0  0  0  0  0  0  0  0  0  0
    0.9804   -3.0625   -0.3208 H   0  0  0  0  0  0  0  0  0  0  0  0
    1.2194   -2.0667    1.1063 H   0  0  0  0  0  0  0  0  0  0  0  0
   -3.1175   -2.6887   -1.0035 H   0  0  0  0  0  0  0  0  0  0  0  0
   -2.5706   -1.6776   -2.3632 H   0  0  0  0  0  0  0  0  0  0  0  0
  1  2  1  0
  2  3  1  0
  3  4  2  0
  4  5  1  0
  5  6  2  0
  6  7  1  0
  7  8  2  0
  8  9  1  0
  9 10  1  0
  6 11  1  0
 11 12  2  0
 11 13  1  0
 13 14  1  0
 14 15  1  0
 15 16  1  0
 16 17  1  0
 17 18  1  0
 18 19  1  0
 19 20  1  0
 20 21  2  0
 21 22  1  0
 22 23  2  0
 23 24  1  0
 24 25  2  0
 18 26  1  0
 26 27  1  0
 13 28  1  0
  8  3  1  0
 27 15  1  0
 28  5  1  0
 25 20  1  0
  1 29  1  0
  1 30  1  0
  1 31  1  0
  4 32  1  0
  7 33  1  0
 10 34  1  0
 10 35  1  0
 10 36  1  0
 13 37  1  0
 14 38  1  0
 14 39  1  0
 15 40  1  0
 16 41  1  0
 16 42  1  0
 17 43  1  0
 17 44  1  0
 19 45  1  0
 19 46  1  0
 21 47  1  0
 22 48  1  0
 23 49  1  0
 24 50  1  0
 25 51  1  0
 26 52  1  0
 26 53  1  0
 27 54  1  0
 27 55  1  0
 28 56  1  0
 28 57  1  0
M  END
