
     RDKit          3D

 40 42  0  0  0  0  0  0  0  0999 V2000
    3.9716   -2.3892   -1.5856 C   0  0  0  0  0  0  0  0  0  0  0  0
    2.8851   -2.5863   -0.6379 N   0  0  0  0  0  0  0  0  0  0  0  0
    1.8153   -1.5943   -0.7762 C   0  0  0  0  0  0  0  0  0  0  0  0
    2.1913   -0.2142   -0.2261 C   0  0  0  0  0  0  0  0  0  0  0  0
    1.0290    0.7852   -0.3728 C   0  0  0  0  0  0  0  0  0  0  0  0
   -0.0336    0.3609    0.4980 O   0  0  0  0  0  0  0  0  0  0  0  0
   -1.3124    0.4256   -0.0047 C   0  0  0  0  0  0  0  0  0  0  0  0
   -1.7505    1.4758   -0.8179 C   0  0  0  0  0  0  0  0  0  0  0  0
   -3.0624    1.5014   -1.2844 C   0  0  0  0  0  0  0  0  0  0  0  0
   -3.9494    0.4874   -0.9290 C   0  0  0  0  0  0  0  0  0  0  0  0
   -3.5427   -0.5608   -0.0904 C   0  0  0  0  0  0  0  0  0  0  0  0
   -4.4450   -1.5726    0.2787 C   0  0  0  0  0  0  0  0  0  0  0  0
   -4.0502   -2.6141    1.1181 C   0  0  0  0  0  0  0  0  0  0  0  0
   -2.7483   -2.6571    1.6014 C   0  0  0  0  0  0  0  0  0  0  0  0
   -1.8401   -1.6593    1.2425 C   0  0  0  0  0  0  0  0  0  0  0  0
   -2.2110   -0.5959    0.3908 C   0  0  0  0  0  0  0  0  0  0  0  0
    1.4705    2.1588    0.0794 C   0  0  0  0  0  0  0  0  0  0  0  0
    1.4725    2.6985    1.3528 C   0  0  0  0  0  0  0  0  0  0  0  0
    1.9702    4.0325    1.3799 C   0  0  0  0  0  0  0  0  0  0  0  0
    2.3366    4.4707    0.1279 C   0  0  0  0  0  0  0  0  0  0  0  0
    2.0800    3.2796   -1.0705 S   0  0  0  0  0  0  0  0  0  0  0  0
    4.5123   -1.4558   -1.4044 H   0  0  0  0  0  0  0  0  0  0  0  0
    3.6062   -2.3982   -2.6176 H   0  0  0  0  0  0  0  0  0  0  0  0
    4.6892   -3.2099   -1.4870 H   0  0  0  0  0  0  0  0  0  0  0  0
    3.2511   -2.5730    0.3136 H   0  0  0  0  0  0  0  0  0  0  0  0
    0.9513   -1.9797   -0.2247 H   0  0  0  0  0  0  0  0  0  0  0  0
    1.4998   -1.5205   -1.8240 H   0  0  0  0  0  0  0  0  0  0  0  0
    2.4643   -0.3164    0.8329 H   0  0  0  0  0  0  0  0  0  0  0  0
    3.0716    0.1719   -0.7533 H   0  0  0  0  0  0  0  0  0  0  0  0
    0.7121    0.7946   -1.4244 H   0  0  0  0  0  0  0  0  0  0  0  0
   -1.0952    2.2987   -1.0841 H   0  0  0  0  0  0  0  0  0  0  0  0
   -3.3978    2.3185   -1.9180 H   0  0  0  0  0  0  0  0  0  0  0  0
   -4.9701    0.5281   -1.3034 H   0  0  0  0  0  0  0  0  0  0  0  0
   -5.4697   -1.5554   -0.0864 H   0  0  0  0  0  0  0  0  0  0  0  0
   -4.7601   -3.3890    1.3946 H   0  0  0  0  0  0  0  0  0  0  0  0
   -2.4348   -3.4650    2.2571 H   0  0  0  0  0  0  0  0  0  0  0  0
   -0.8272   -1.7141    1.6361 H   0  0  0  0  0  0  0  0  0  0  0  0
    1.1236    2.1577    2.2253 H   0  0  0  0  0  0  0  0  0  0  0  0
    2.0535    4.6395    2.2731 H   0  0  0  0  0  0  0  0  0  0  0  0
    2.7432    5.4355   -0.1427 H   0  0  0  0  0  0  0  0  0  0  0  0
  1  2  1  0
  2  3  1  0
  3  4  1  0
  4  5  1  0
  5  6  1  0
  6  7  1  0
  7  8  2  0
  8  9  1  0
  9 10  2  0
 10 11  1  0
 11 12  2  0
 12 13  1  0
 13 14  2  0
 14 15  1  0
 15 16  2  0
  5 17  1  0
 17 18  2  0
 18 19  1  0
 19 20  2  0
 20 21  1  0
 16  7  1  0
 21 17  1  0
 16 11  1  0
  1 22  1  0
  1 23  1  0
  1 24  1  0
  2 25  1  0
  3 26  1  0
  3 27  1  0
  4 28  1  0
  4 29  1  0
  5 30  1  0
  8 31  1  0
  9 32  1  0
 10 33  1  0
 12 34  1  0
 13 35  1  0
 14 36  1  0
 15 37  1  0
 18 38  1  0
 19 39  1  0
 20 40  1  0
M  END
