
     RDKit          3D

 67 71  0  0  0  0  0  0  0  0999 V2000
    2.3303    2.0894    0.1376 O   0  0  0  0  0  0  0  0  0  0  0  0
    2.2567    1.2433   -0.7455 C   0  0  0  0  0  0  0  0  0  0  0  0
    3.0451    0.1067   -0.8519 N   0  0  0  0  0  0  0  0  0  0  0  0
    4.0954   -0.2937   -0.0011 C   0  0  0  0  0  0  0  0  0  0  0  0
    4.7295   -1.5064   -0.3007 C   0  0  0  0  0  0  0  0  0  0  0  0
    5.7981   -1.9835    0.4783 C   0  0  0  0  0  0  0  0  0  0  0  0
    6.4609   -3.2915    0.1196 C   0  0  0  0  0  0  0  0  0  0  0  0
    7.0683   -3.2461   -1.0978 F   0  0  0  0  0  0  0  0  0  0  0  0
    5.5710   -4.3201    0.0550 F   0  0  0  0  0  0  0  0  0  0  0  0
    7.4193   -3.6788    1.0051 F   0  0  0  0  0  0  0  0  0  0  0  0
    6.2289   -1.2236    1.5737 C   0  0  0  0  0  0  0  0  0  0  0  0
    5.6000   -0.0122    1.8981 C   0  0  0  0  0  0  0  0  0  0  0  0
    6.0976    0.8246    3.0542 C   0  0  0  0  0  0  0  0  0  0  0  0
    7.0901    1.6762    2.6743 F   0  0  0  0  0  0  0  0  0  0  0  0
    6.6157    0.0713    4.0643 F   0  0  0  0  0  0  0  0  0  0  0  0
    5.1329    1.5958    3.6246 F   0  0  0  0  0  0  0  0  0  0  0  0
    4.5376    0.4447    1.0978 C   0  0  0  0  0  0  0  0  0  0  0  0
    1.2154    1.3304   -1.8722 C   0  0  2  0  0  0  0  0  0  0  0  0
    0.7114    2.7833   -2.0734 C   0  0  0  0  0  0  0  0  0  0  0  0
   -0.7106    2.8516   -1.4908 C   0  0  0  0  0  0  0  0  0  0  0  0
   -0.8854    1.5255   -0.7599 C   0  0  1  0  0  0  0  0  0  0  0  0
   -2.3153    1.0681   -0.4416 C   0  0  2  0  0  0  0  0  0  0  0  0
   -3.0218    2.1172    0.4427 C   0  0  0  0  0  0  0  0  0  0  0  0
   -4.0791    1.5287    1.3715 C   0  0  0  0  0  0  0  0  0  0  0  0
   -4.7648    0.3192    0.7363 C   0  0  2  0  0  0  0  0  0  0  0  0
   -5.9226   -0.0643    1.5305 N   0  0  0  0  0  0  0  0  0  0  0  0
   -5.8688   -0.9131    2.5939 C   0  0  0  0  0  0  0  0  0  0  0  0
   -6.7761   -0.9998    3.4104 O   0  0  0  0  0  0  0  0  0  0  0  0
   -4.6650   -1.7636    2.6919 C   0  0  0  0  0  0  0  0  0  0  0  0
   -3.7302   -1.7752    1.7318 C   0  0  0  0  0  0  0  0  0  0  0  0
   -3.7616   -0.8658    0.5084 C   0  0  1  0  0  0  0  0  0  0  0  0
   -4.2953   -1.7093   -0.6702 C   0  0  0  0  0  0  0  0  0  0  0  0
   -2.2973   -0.3223    0.2558 C   0  0  1  0  0  0  0  0  0  0  0  0
   -1.3616   -1.3445   -0.4475 C   0  0  0  0  0  0  0  0  0  0  0  0
    0.0239   -0.7777   -0.7972 C   0  0  0  0  0  0  0  0  0  0  0  0
   -0.0859    0.5220   -1.6104 C   0  0  2  0  0  0  0  0  0  0  0  0
   -0.7282    0.2151   -2.9903 C   0  0  0  0  0  0  0  0  0  0  0  0
    2.8454   -0.5081   -1.6309 H   0  0  0  0  0  0  0  0  0  0  0  0
    4.4030   -2.0993   -1.1542 H   0  0  0  0  0  0  0  0  0  0  0  0
    7.0643   -1.5749    2.1826 H   0  0  0  0  0  0  0  0  0  0  0  0
    4.0758    1.3938    1.3592 H   0  0  0  0  0  0  0  0  0  0  0  0
    1.7146    1.0009   -2.7933 H   0  0  0  0  0  0  0  0  0  0  0  0
    1.3641    3.5332   -1.6150 H   0  0  0  0  0  0  0  0  0  0  0  0
    0.6706    3.0209   -3.1432 H   0  0  0  0  0  0  0  0  0  0  0  0
   -0.8221    3.7070   -0.8153 H   0  0  0  0  0  0  0  0  0  0  0  0
   -1.4467    2.9691   -2.2946 H   0  0  0  0  0  0  0  0  0  0  0  0
   -0.3709    1.6356    0.2083 H   0  0  0  0  0  0  0  0  0  0  0  0
   -2.8853    0.9818   -1.3752 H   0  0  0  0  0  0  0  0  0  0  0  0
   -2.2994    2.6636    1.0626 H   0  0  0  0  0  0  0  0  0  0  0  0
   -3.4862    2.8680   -0.2101 H   0  0  0  0  0  0  0  0  0  0  0  0
   -3.6126    1.2402    2.3224 H   0  0  0  0  0  0  0  0  0  0  0  0
   -4.8107    2.3050    1.6254 H   0  0  0  0  0  0  0  0  0  0  0  0
   -5.1786    0.6415   -0.2287 H   0  0  0  0  0  0  0  0  0  0  0  0
   -6.7517    0.5174    1.5065 H   0  0  0  0  0  0  0  0  0  0  0  0
   -4.6212   -2.4243    3.5498 H   0  0  0  0  0  0  0  0  0  0  0  0
   -2.9061   -2.4771    1.8275 H   0  0  0  0  0  0  0  0  0  0  0  0
   -3.7555   -2.6563   -0.7821 H   0  0  0  0  0  0  0  0  0  0  0  0
   -4.2175   -1.1599   -1.6153 H   0  0  0  0  0  0  0  0  0  0  0  0
   -5.3514   -1.9692   -0.5294 H   0  0  0  0  0  0  0  0  0  0  0  0
   -1.8377   -0.1484    1.2426 H   0  0  0  0  0  0  0  0  0  0  0  0
   -1.2231   -2.2212    0.1960 H   0  0  0  0  0  0  0  0  0  0  0  0
   -1.8174   -1.7174   -1.3687 H   0  0  0  0  0  0  0  0  0  0  0  0
    0.5586   -0.6047    0.1449 H   0  0  0  0  0  0  0  0  0  0  0  0
    0.5958   -1.5308   -1.3521 H   0  0  0  0  0  0  0  0  0  0  0  0
   -0.8085    1.1053   -3.6225 H   0  0  0  0  0  0  0  0  0  0  0  0
   -0.1131   -0.5095   -3.5383 H   0  0  0  0  0  0  0  0  0  0  0  0
   -1.7352   -0.2038   -2.9144 H   0  0  0  0  0  0  0  0  0  0  0  0
  1  2  2  0
  2  3  1  0
  3  4  1  0
  4  5  2  0
  5  6  1  0
  6  7  1  0
  7  8  1  0
  7  9  1  0
  7 10  1  0
  6 11  2  0
 11 12  1  0
 12 13  1  0
 13 14  1  0
 13 15  1  0
 13 16  1  0
 12 17  2  0
  2 18  1  0
 18 19  1  0
 19 20  1  0
 20 21  1  0
 21 22  1  0
 22 23  1  0
 23 24  1  0
 24 25  1  0
 25 26  1  0
 26 27  1  0
 27 28  2  0
 27 29  1  0
 29 30  2  0
 30 31  1  0
 31 32  1  6
 31 33  1  0
 33 34  1  0
 34 35  1  0
 35 36  1  0
 36 37  1  6
 17  4  1  0
 36 18  1  0
 36 21  1  0
 33 22  1  0
 31 25  1  0
  3 38  1  0
  5 39  1  0
 11 40  1  0
 17 41  1  0
 18 42  1  6
 19 43  1  0
 19 44  1  0
 20 45  1  0
 20 46  1  0
 21 47  1  1
 22 48  1  6
 23 49  1  0
 23 50  1  0
 24 51  1  0
 24 52  1  0
 25 53  1  6
 26 54  1  0
 29 55  1  0
 30 56  1  0
 32 57  1  0
 32 58  1  0
 32 59  1  0
 33 60  1  1
 34 61  1  0
 34 62  1  0
 35 63  1  0
 35 64  1  0
 37 65  1  0
 37 66  1  0
 37 67  1  0
M  END
