
     RDKit          3D

 55 56  0  0  0  0  0  0  0  0999 V2000
   -1.7084   -5.5066    0.7739 C   0  0  0  0  0  0  0  0  0  0  0  0
   -2.0407   -4.4593   -0.2710 C   0  0  0  0  0  0  0  0  0  0  0  0
   -1.3198   -3.2654    0.0503 O   0  0  0  0  0  0  0  0  0  0  0  0
   -1.5104   -2.2351   -0.8305 C   0  0  0  0  0  0  0  0  0  0  0  0
   -2.2136   -2.3031   -1.8319 O   0  0  0  0  0  0  0  0  0  0  0  0
   -0.6653   -1.0077   -0.4182 C   0  0  0  0  0  0  0  0  0  0  0  0
   -1.2055    0.2701   -1.0857 C   0  0  0  0  0  0  0  0  0  0  0  0
   -2.5834    0.7095   -0.5743 C   0  0  0  0  0  0  0  0  0  0  0  0
   -3.0736    1.9354   -1.3076 C   0  0  0  0  0  0  0  0  0  0  0  0
   -2.8639    3.2148   -0.7769 C   0  0  0  0  0  0  0  0  0  0  0  0
   -3.3049    4.3459   -1.4658 C   0  0  0  0  0  0  0  0  0  0  0  0
   -3.9550    4.2083   -2.6914 C   0  0  0  0  0  0  0  0  0  0  0  0
   -4.1616    2.9400   -3.2308 C   0  0  0  0  0  0  0  0  0  0  0  0
   -3.7219    1.8076   -2.5428 C   0  0  0  0  0  0  0  0  0  0  0  0
   -0.6216   -0.8887    1.0661 N   0  0  0  0  0  0  0  0  0  0  0  0
    0.5501   -0.1117    1.5351 C   0  0  1  0  0  0  0  0  0  0  0  0
    0.3482    0.2253    3.0103 C   0  0  0  0  0  0  0  0  0  0  0  0
    1.8426   -0.9505    1.3963 C   0  0  0  0  0  0  0  0  0  0  0  0
    1.8087   -2.1775    1.5331 O   0  0  0  0  0  0  0  0  0  0  0  0
    3.0257   -0.2911    1.1488 N   0  0  0  0  0  0  0  0  0  0  0  0
    4.2801   -1.0238    1.1060 C   0  0  0  0  0  0  0  0  0  0  0  0
    5.3154   -0.0013    0.6653 C   0  0  0  0  0  0  0  0  0  0  0  0
    4.7430    1.3160    1.1817 C   0  0  0  0  0  0  0  0  0  0  0  0
    3.2376    1.1497    0.9622 C   0  0  1  0  0  0  0  0  0  0  0  0
    2.8315    1.5967   -0.4474 C   0  0  0  0  0  0  0  0  0  0  0  0
    2.2619    0.9295   -1.2960 O   0  0  0  0  0  0  0  0  0  0  0  0
    3.1017    2.8979   -0.6818 O   0  0  0  0  0  0  0  0  0  0  0  0
   -1.9744   -5.1511    1.7748 H   0  0  0  0  0  0  0  0  0  0  0  0
   -2.2447   -6.4392    0.5765 H   0  0  0  0  0  0  0  0  0  0  0  0
   -0.6323   -5.7115    0.7858 H   0  0  0  0  0  0  0  0  0  0  0  0
   -1.7422   -4.8186   -1.2616 H   0  0  0  0  0  0  0  0  0  0  0  0
   -3.1172   -4.2543   -0.2606 H   0  0  0  0  0  0  0  0  0  0  0  0
    0.3364   -1.2180   -0.8140 H   0  0  0  0  0  0  0  0  0  0  0  0
   -0.4930    1.0922   -0.9449 H   0  0  0  0  0  0  0  0  0  0  0  0
   -1.2539    0.1090   -2.1713 H   0  0  0  0  0  0  0  0  0  0  0  0
   -3.3213   -0.0928   -0.6930 H   0  0  0  0  0  0  0  0  0  0  0  0
   -2.5448    0.9284    0.4997 H   0  0  0  0  0  0  0  0  0  0  0  0
   -2.3599    3.3359    0.1786 H   0  0  0  0  0  0  0  0  0  0  0  0
   -3.1448    5.3345   -1.0448 H   0  0  0  0  0  0  0  0  0  0  0  0
   -4.3010    5.0895   -3.2257 H   0  0  0  0  0  0  0  0  0  0  0  0
   -4.6651    2.8300   -4.1871 H   0  0  0  0  0  0  0  0  0  0  0  0
   -3.8865    0.8227   -2.9748 H   0  0  0  0  0  0  0  0  0  0  0  0
   -0.4942   -1.8456    1.4293 H   0  0  0  0  0  0  0  0  0  0  0  0
    0.6205    0.8227    0.9763 H   0  0  0  0  0  0  0  0  0  0  0  0
    0.2430   -0.6800    3.6193 H   0  0  0  0  0  0  0  0  0  0  0  0
   -0.5481    0.8390    3.1533 H   0  0  0  0  0  0  0  0  0  0  0  0
    1.2038    0.7831    3.4057 H   0  0  0  0  0  0  0  0  0  0  0  0
    4.2099   -1.8763    0.4239 H   0  0  0  0  0  0  0  0  0  0  0  0
    4.4882   -1.3941    2.1159 H   0  0  0  0  0  0  0  0  0  0  0  0
    6.3134   -0.2168    1.0586 H   0  0  0  0  0  0  0  0  0  0  0  0
    5.3756    0.0250   -0.4288 H   0  0  0  0  0  0  0  0  0  0  0  0
    5.1823    2.1801    0.6757 H   0  0  0  0  0  0  0  0  0  0  0  0
    4.9524    1.4058    2.2552 H   0  0  0  0  0  0  0  0  0  0  0  0
    2.6475    1.7174    1.6870 H   0  0  0  0  0  0  0  0  0  0  0  0
    2.7535    3.0582   -1.5861 H   0  0  0  0  0  0  0  0  0  0  0  0
  1  2  1  0
  2  3  1  0
  3  4  1  0
  4  5  2  0
  4  6  1  0
  6  7  1  0
  7  8  1  0
  8  9  1  0
  9 10  2  0
 10 11  1  0
 11 12  2  0
 12 13  1  0
 13 14  2  0
  6 15  1  0
 15 16  1  0
 16 17  1  0
 16 18  1  0
 18 19  2  0
 18 20  1  0
 20 21  1  0
 21 22  1  0
 22 23  1  0
 23 24  1  0
 24 25  1  0
 25 26  2  0
 25 27  1  0
 14  9  1  0
 24 20  1  0
  1 28  1  0
  1 29  1  0
  1 30  1  0
  2 31  1  0
  2 32  1  0
  6 33  1  0
  7 34  1  0
  7 35  1  0
  8 36  1  0
  8 37  1  0
 10 38  1  0
 11 39  1  0
 12 40  1  0
 13 41  1  0
 14 42  1  0
 15 43  1  0
 16 44  1  6
 17 45  1  0
 17 46  1  0
 17 47  1  0
 21 48  1  0
 21 49  1  0
 22 50  1  0
 22 51  1  0
 23 52  1  0
 23 53  1  0
 24 54  1  1
 27 55  1  0
M  END
