
     RDKit          3D

 44 47  0  0  0  0  0  0  0  0999 V2000
   -2.2418   -1.3460   -1.2299 C   0  0  0  0  0  0  0  0  0  0  0  0
   -2.2574    0.0377   -0.5317 C   0  0  2  0  0  0  0  0  0  0  0  0
   -1.6158    1.0794   -1.4564 C   0  0  0  0  0  0  0  0  0  0  0  0
   -0.0974    0.8603   -1.6012 C   0  0  0  0  0  0  0  0  0  0  0  0
    0.6466    0.7474   -0.2433 C   0  0  1  0  0  0  0  0  0  0  0  0
   -0.0476   -0.2849    0.6962 C   0  0  1  0  0  0  0  0  0  0  0  0
    0.6750   -0.2947    2.0447 C   0  0  0  0  0  0  0  0  0  0  0  0
    2.0998   -0.8099    1.8650 C   0  0  0  0  0  0  0  0  0  0  0  0
    2.8214   -0.2189    0.6779 C   0  0  0  0  0  0  0  0  0  0  0  0
    4.2084   -0.4280    0.5861 C   0  0  0  0  0  0  0  0  0  0  0  0
    4.9262    0.0733   -0.4902 C   0  0  0  0  0  0  0  0  0  0  0  0
    6.2693   -0.1566   -0.5242 O   0  0  0  0  0  0  0  0  0  0  0  0
    4.2870    0.7882   -1.4910 C   0  0  0  0  0  0  0  0  0  0  0  0
    2.9067    0.9948   -1.4141 C   0  0  0  0  0  0  0  0  0  0  0  0
    2.1466    0.4800   -0.3475 C   0  0  0  0  0  0  0  0  0  0  0  0
   -1.5249    0.0862    0.8244 C   0  0  2  0  0  0  0  0  0  0  0  0
   -2.4244   -0.7348    1.7439 C   0  0  0  0  0  0  0  0  0  0  0  0
   -3.8478   -0.4274    1.2440 C   0  0  0  0  0  0  0  0  0  0  0  0
   -3.6829    0.3814   -0.0569 C   0  0  2  0  0  0  0  0  0  0  0  0
   -4.6920    0.0476   -0.9898 O   0  0  0  0  0  0  0  0  0  0  0  0
   -2.7835   -1.3032   -2.1821 H   0  0  0  0  0  0  0  0  0  0  0  0
   -2.7168   -2.1251   -0.6255 H   0  0  0  0  0  0  0  0  0  0  0  0
   -1.2309   -1.6933   -1.4587 H   0  0  0  0  0  0  0  0  0  0  0  0
   -2.0859    1.0613   -2.4470 H   0  0  0  0  0  0  0  0  0  0  0  0
   -1.7824    2.0878   -1.0555 H   0  0  0  0  0  0  0  0  0  0  0  0
    0.2940    1.7064   -2.1778 H   0  0  0  0  0  0  0  0  0  0  0  0
    0.0955   -0.0347   -2.2049 H   0  0  0  0  0  0  0  0  0  0  0  0
    0.5677    1.7365    0.2341 H   0  0  0  0  0  0  0  0  0  0  0  0
    0.0418   -1.2913    0.2674 H   0  0  0  0  0  0  0  0  0  0  0  0
    0.1572   -0.9336    2.7687 H   0  0  0  0  0  0  0  0  0  0  0  0
    0.6943    0.7176    2.4687 H   0  0  0  0  0  0  0  0  0  0  0  0
    2.0715   -1.8991    1.7323 H   0  0  0  0  0  0  0  0  0  0  0  0
    2.6646   -0.6051    2.7826 H   0  0  0  0  0  0  0  0  0  0  0  0
    4.7331   -0.9839    1.3594 H   0  0  0  0  0  0  0  0  0  0  0  0
    6.6299    0.2458   -1.3309 H   0  0  0  0  0  0  0  0  0  0  0  0
    4.8377    1.1957   -2.3325 H   0  0  0  0  0  0  0  0  0  0  0  0
    2.4404    1.5749   -2.2053 H   0  0  0  0  0  0  0  0  0  0  0  0
   -1.5625    1.1202    1.2068 H   0  0  0  0  0  0  0  0  0  0  0  0
   -2.2131   -1.8067    1.6610 H   0  0  0  0  0  0  0  0  0  0  0  0
   -2.3032   -0.4533    2.7948 H   0  0  0  0  0  0  0  0  0  0  0  0
   -4.4131   -1.3529    1.0865 H   0  0  0  0  0  0  0  0  0  0  0  0
   -4.4018    0.1609    1.9842 H   0  0  0  0  0  0  0  0  0  0  0  0
   -3.7740    1.4509    0.1716 H   0  0  0  0  0  0  0  0  0  0  0  0
   -4.5155    0.5489   -1.8039 H   0  0  0  0  0  0  0  0  0  0  0  0
  2  1  1  6
  2  3  1  0
  3  4  1  0
  4  5  1  0
  5  6  1  0
  6  7  1  0
  7  8  1  0
  8  9  1  0
  9 10  1  0
 10 11  2  0
 11 12  1  0
 11 13  1  0
 13 14  2  0
 14 15  1  0
  6 16  1  0
 16 17  1  0
 17 18  1  0
 18 19  1  0
 19 20  1  0
 16  2  1  0
 19  2  1  0
 15  5  1  0
 15  9  2  0
  1 21  1  0
  1 22  1  0
  1 23  1  0
  3 24  1  0
  3 25  1  0
  4 26  1  0
  4 27  1  0
  5 28  1  1
  6 29  1  6
  7 30  1  0
  7 31  1  0
  8 32  1  0
  8 33  1  0
 10 34  1  0
 12 35  1  0
 13 36  1  0
 14 37  1  0
 16 38  1  1
 17 39  1  0
 17 40  1  0
 18 41  1  0
 18 42  1  0
 19 43  1  1
 20 44  1  0
M  END
