
     RDKit          3D

 51 54  0  0  0  0  0  0  0  0999 V2000
    1.3627    3.4604   -0.5507 O   0  0  0  0  0  0  0  0  0  0  0  0
    1.2201    2.2594   -0.5731 C   0  0  0  0  0  0  0  0  0  0  0  0
   -0.0039    1.3195   -0.5750 C   0  0  0  0  0  0  0  0  0  0  0  0
   -0.9478    1.5437    0.6069 C   0  0  0  0  0  0  0  0  0  0  0  0
   -2.1427    0.5808    0.5884 C   0  0  0  0  0  0  0  0  0  0  0  0
   -3.2312    0.9460   -0.4383 C   0  0  0  0  0  0  0  0  0  0  0  0
   -3.9057    2.1338   -0.0282 O   0  0  0  0  0  0  0  0  0  0  0  0
   -4.2901   -0.1178   -0.6520 C   0  0  0  0  0  0  0  0  0  0  0  0
   -4.6577   -1.0381    0.3469 C   0  0  0  0  0  0  0  0  0  0  0  0
   -5.6413   -1.9997    0.1004 C   0  0  0  0  0  0  0  0  0  0  0  0
   -6.2719   -2.0398   -1.1399 C   0  0  0  0  0  0  0  0  0  0  0  0
   -7.2159   -2.9625   -1.3736 F   0  0  0  0  0  0  0  0  0  0  0  0
   -5.9420   -1.1307   -2.1387 C   0  0  0  0  0  0  0  0  0  0  0  0
   -4.9607   -0.1687   -1.8910 C   0  0  0  0  0  0  0  0  0  0  0  0
    1.0582    0.1600   -0.5978 C   0  0  0  0  0  0  0  0  0  0  0  0
    1.0886   -0.8953    0.5994 C   0  0  0  0  0  0  0  0  0  0  0  0
    0.5247   -2.1824    0.4433 C   0  0  0  0  0  0  0  0  0  0  0  0
    0.5254   -3.1258    1.4749 C   0  0  0  0  0  0  0  0  0  0  0  0
    1.1058   -2.8026    2.6924 C   0  0  0  0  0  0  0  0  0  0  0  0
    1.1122   -3.7044    3.6815 F   0  0  0  0  0  0  0  0  0  0  0  0
    1.6788   -1.5572    2.8934 C   0  0  0  0  0  0  0  0  0  0  0  0
    1.6687   -0.6174    1.8581 C   0  0  0  0  0  0  0  0  0  0  0  0
    2.0786    1.2142   -0.6195 N   0  0  0  0  0  0  0  0  0  0  0  0
    3.4645    1.1454   -0.7594 C   0  0  0  0  0  0  0  0  0  0  0  0
    4.1062   -0.0935   -0.8718 C   0  0  0  0  0  0  0  0  0  0  0  0
    5.4965   -0.1691   -0.9980 C   0  0  0  0  0  0  0  0  0  0  0  0
    6.2486    0.9974   -1.0209 C   0  0  0  0  0  0  0  0  0  0  0  0
    7.6006    0.8810   -1.1430 O   0  0  0  0  0  0  0  0  0  0  0  0
    5.6334    2.2379   -0.9149 C   0  0  0  0  0  0  0  0  0  0  0  0
    4.2422    2.3091   -0.7871 C   0  0  0  0  0  0  0  0  0  0  0  0
   -0.5411    1.4000   -1.5320 H   0  0  0  0  0  0  0  0  0  0  0  0
   -1.3036    2.5801    0.6062 H   0  0  0  0  0  0  0  0  0  0  0  0
   -0.4052    1.4126    1.5493 H   0  0  0  0  0  0  0  0  0  0  0  0
   -2.5834    0.6073    1.5941 H   0  0  0  0  0  0  0  0  0  0  0  0
   -1.7916   -0.4397    0.4103 H   0  0  0  0  0  0  0  0  0  0  0  0
   -2.7602    1.1456   -1.4089 H   0  0  0  0  0  0  0  0  0  0  0  0
   -3.3135    2.8846   -0.2056 H   0  0  0  0  0  0  0  0  0  0  0  0
   -4.1914   -1.0156    1.3298 H   0  0  0  0  0  0  0  0  0  0  0  0
   -5.9239   -2.7121    0.8723 H   0  0  0  0  0  0  0  0  0  0  0  0
   -6.4560   -1.1713   -3.0983 H   0  0  0  0  0  0  0  0  0  0  0  0
   -4.7260    0.5549   -2.6706 H   0  0  0  0  0  0  0  0  0  0  0  0
    1.0498   -0.3602   -1.5682 H   0  0  0  0  0  0  0  0  0  0  0  0
    0.0725   -2.4580   -0.5085 H   0  0  0  0  0  0  0  0  0  0  0  0
    0.0796   -4.1064    1.3333 H   0  0  0  0  0  0  0  0  0  0  0  0
    2.1380   -1.3241    3.8498 H   0  0  0  0  0  0  0  0  0  0  0  0
    2.1316    0.3537    2.0363 H   0  0  0  0  0  0  0  0  0  0  0  0
    3.5444   -1.0236   -0.8713 H   0  0  0  0  0  0  0  0  0  0  0  0
    5.9899   -1.1327   -1.0814 H   0  0  0  0  0  0  0  0  0  0  0  0
    7.9892    1.7707   -1.1031 H   0  0  0  0  0  0  0  0  0  0  0  0
    6.2106    3.1579   -0.9217 H   0  0  0  0  0  0  0  0  0  0  0  0
    3.7851    3.2926   -0.7080 H   0  0  0  0  0  0  0  0  0  0  0  0
  1  2  2  0
  2  3  1  0
  3  4  1  0
  4  5  1  0
  5  6  1  0
  6  7  1  0
  6  8  1  0
  8  9  1  0
  9 10  2  0
 10 11  1  0
 11 12  1  0
 11 13  2  0
 13 14  1  0
  3 15  1  0
 15 16  1  0
 16 17  1  0
 17 18  2  0
 18 19  1  0
 19 20  1  0
 19 21  2  0
 21 22  1  0
 15 23  1  0
 23 24  1  0
 24 25  1  0
 25 26  2  0
 26 27  1  0
 27 28  1  0
 27 29  2  0
 29 30  1  0
 23  2  1  0
 30 24  2  0
 14  8  2  0
 22 16  2  0
  3 31  1  0
  4 32  1  0
  4 33  1  0
  5 34  1  0
  5 35  1  0
  6 36  1  0
  7 37  1  0
  9 38  1  0
 10 39  1  0
 13 40  1  0
 14 41  1  0
 15 42  1  0
 17 43  1  0
 18 44  1  0
 21 45  1  0
 22 46  1  0
 25 47  1  0
 26 48  1  0
 28 49  1  0
 29 50  1  0
 30 51  1  0
M  END
