
     RDKit          3D

 35 35  0  0  0  0  0  0  0  0999 V2000
   -6.4416    1.7289   -0.1970 N   0  0  0  0  0  0  0  0  0  0  0  0
   -5.1989    1.2291    0.0161 C   0  0  0  0  0  0  0  0  0  0  0  0
   -4.5674    1.0651   -1.1782 N   0  0  0  0  0  0  0  0  0  0  0  0
   -4.8047    0.9625    1.2125 N   0  0  0  0  0  0  0  0  0  0  0  0
   -3.5438    0.4816    1.3782 C   0  0  0  0  0  0  0  0  0  0  0  0
   -2.5222    0.5770    0.5399 N   0  0  0  0  0  0  0  0  0  0  0  0
   -1.3845   -0.0207    1.0713 C   0  0  0  0  0  0  0  0  0  0  0  0
   -0.1127    0.0224    0.2806 C   0  0  0  0  0  0  0  0  0  0  0  0
    0.0287   -1.4130   -0.8026 S   0  0  0  0  0  0  0  0  0  0  0  0
    1.3785   -0.8695   -1.9115 C   0  0  0  0  0  0  0  0  0  0  0  0
    2.7849   -0.9289   -1.3164 C   0  0  0  0  0  0  0  0  0  0  0  0
    3.1743    0.2868   -0.4867 C   0  0  0  0  0  0  0  0  0  0  0  0
    3.1151    1.5120   -1.1139 N   0  0  0  0  0  0  0  0  0  0  0  0
    3.6058    0.2862    0.7388 N   0  0  0  0  0  0  0  0  0  0  0  0
    3.7814   -1.0222    1.6446 S   0  0  0  0  0  0  0  0  0  0  0  0
    4.9762   -1.9525    0.9332 N   0  0  0  0  0  0  0  0  0  0  0  0
    4.3728   -0.6405    2.9041 O   0  0  0  0  0  0  0  0  0  0  0  0
    2.5613   -1.7960    1.6195 O   0  0  0  0  0  0  0  0  0  0  0  0
   -1.5603   -0.5787    2.3199 C   0  0  0  0  0  0  0  0  0  0  0  0
   -3.1669   -0.3417    2.8505 S   0  0  0  0  0  0  0  0  0  0  0  0
   -6.8948    1.2719   -0.9783 H   0  0  0  0  0  0  0  0  0  0  0  0
   -7.0070    1.6495    0.6430 H   0  0  0  0  0  0  0  0  0  0  0  0
   -3.5713    0.8606   -1.0308 H   0  0  0  0  0  0  0  0  0  0  0  0
   -4.6703    1.8707   -1.7875 H   0  0  0  0  0  0  0  0  0  0  0  0
   -0.1080    0.9280   -0.3498 H   0  0  0  0  0  0  0  0  0  0  0  0
    0.7461    0.0801    0.9575 H   0  0  0  0  0  0  0  0  0  0  0  0
    1.1275    0.1177   -2.3095 H   0  0  0  0  0  0  0  0  0  0  0  0
    1.3520   -1.5677   -2.7557 H   0  0  0  0  0  0  0  0  0  0  0  0
    2.9434   -1.8737   -0.8025 H   0  0  0  0  0  0  0  0  0  0  0  0
    3.4967   -0.9446   -2.1569 H   0  0  0  0  0  0  0  0  0  0  0  0
    2.6082    1.6506   -1.9813 H   0  0  0  0  0  0  0  0  0  0  0  0
    3.2554    2.3439   -0.5568 H   0  0  0  0  0  0  0  0  0  0  0  0
    5.6947   -1.3386    0.5328 H   0  0  0  0  0  0  0  0  0  0  0  0
    5.3817   -2.5388    1.6644 H   0  0  0  0  0  0  0  0  0  0  0  0
   -0.8303   -1.0975    2.9245 H   0  0  0  0  0  0  0  0  0  0  0  0
  1  2  1  0
  2  3  1  0
  2  4  2  3
  4  5  1  0
  5  6  2  0
  6  7  1  0
  7  8  1  0
  8  9  1  0
  9 10  1  0
 10 11  1  0
 11 12  1  0
 12 13  1  0
 12 14  2  3
 14 15  1  0
 15 16  1  0
 15 17  2  0
 15 18  2  0
  7 19  2  0
 19 20  1  0
 20  5  1  0
  1 21  1  0
  1 22  1  0
  3 23  1  0
  3 24  1  0
  8 25  1  0
  8 26  1  0
 10 27  1  0
 10 28  1  0
 11 29  1  0
 11 30  1  0
 13 31  1  0
 13 32  1  0
 16 33  1  0
 16 34  1  0
 19 35  1  0
M  END
