
     RDKit          3D

 63 66  0  0  0  0  0  0  0  0999 V2000
    5.4309    0.1475   -0.9161 C   0  0  0  0  0  0  0  0  0  0  0  0
    3.9456    0.1297   -1.3074 C   0  0  0  0  0  0  0  0  0  0  0  0
    3.6952   -1.0856   -2.2202 C   0  0  0  0  0  0  0  0  0  0  0  0
    3.5875    1.4000   -2.0958 C   0  0  0  0  0  0  0  0  0  0  0  0
    3.0915   -0.0158   -0.1176 N   0  0  0  0  0  0  0  0  0  0  0  0
    3.0186    0.8898    0.9150 C   0  0  0  0  0  0  0  0  0  0  0  0
    3.6410    1.9494    0.9283 O   0  0  0  0  0  0  0  0  0  0  0  0
    2.0475    0.5539    2.0522 C   0  0  2  0  0  0  0  0  0  0  0  0
    2.1202   -0.9117    2.5455 C   0  0  0  0  0  0  0  0  0  0  0  0
    0.7778   -1.5771    2.1872 C   0  0  0  0  0  0  0  0  0  0  0  0
    0.1210   -0.6107    1.2083 C   0  0  1  0  0  0  0  0  0  0  0  0
   -1.3916   -0.6961    0.9552 C   0  0  2  0  0  0  0  0  0  0  0  0
   -1.8848   -2.1082    0.5967 C   0  0  0  0  0  0  0  0  0  0  0  0
   -2.3717   -2.2308   -0.8372 C   0  0  0  0  0  0  0  0  0  0  0  0
   -3.4618   -1.2097   -1.2175 C   0  0  2  0  0  0  0  0  0  0  0  0
   -3.5702   -1.2277   -2.6739 N   0  0  0  0  0  0  0  0  0  0  0  0
   -3.9891   -0.1956   -3.4495 C   0  0  0  0  0  0  0  0  0  0  0  0
   -4.3186   -0.3532   -4.6180 O   0  0  0  0  0  0  0  0  0  0  0  0
   -3.9942    1.1361   -2.8287 C   0  0  0  0  0  0  0  0  0  0  0  0
   -3.6440    1.3255   -1.5518 C   0  0  0  0  0  0  0  0  0  0  0  0
   -3.2496    0.2201   -0.5855 C   0  0  1  0  0  0  0  0  0  0  0  0
   -4.2166    0.3710    0.6166 C   0  0  0  0  0  0  0  0  0  0  0  0
   -1.7549    0.3610   -0.1396 C   0  0  1  0  0  0  0  0  0  0  0  0
   -1.3027    1.7817    0.2902 C   0  0  0  0  0  0  0  0  0  0  0  0
    0.1892    1.8342    0.6799 C   0  0  0  0  0  0  0  0  0  0  0  0
    0.5450    0.7781    1.7387 C   0  0  2  0  0  0  0  0  0  0  0  0
   -0.1383    1.1766    3.0797 C   0  0  0  0  0  0  0  0  0  0  0  0
    5.6938   -0.7416   -0.3314 H   0  0  0  0  0  0  0  0  0  0  0  0
    6.0736    0.1694   -1.8034 H   0  0  0  0  0  0  0  0  0  0  0  0
    5.6834    1.0227   -0.3088 H   0  0  0  0  0  0  0  0  0  0  0  0
    2.6416   -1.1444   -2.5178 H   0  0  0  0  0  0  0  0  0  0  0  0
    4.3010   -1.0345   -3.1317 H   0  0  0  0  0  0  0  0  0  0  0  0
    3.9400   -2.0227   -1.7064 H   0  0  0  0  0  0  0  0  0  0  0  0
    4.1518    1.4547   -3.0338 H   0  0  0  0  0  0  0  0  0  0  0  0
    3.8093    2.3117   -1.5325 H   0  0  0  0  0  0  0  0  0  0  0  0
    2.5199    1.4205   -2.3436 H   0  0  0  0  0  0  0  0  0  0  0  0
    2.6710   -0.9228    0.0230 H   0  0  0  0  0  0  0  0  0  0  0  0
    2.3676    1.2001    2.8821 H   0  0  0  0  0  0  0  0  0  0  0  0
    2.9624   -1.4632    2.1150 H   0  0  0  0  0  0  0  0  0  0  0  0
    2.2546   -0.9401    3.6335 H   0  0  0  0  0  0  0  0  0  0  0  0
    0.9431   -2.5647    1.7453 H   0  0  0  0  0  0  0  0  0  0  0  0
    0.1655   -1.7168    3.0850 H   0  0  0  0  0  0  0  0  0  0  0  0
    0.5960   -0.7867    0.2334 H   0  0  0  0  0  0  0  0  0  0  0  0
   -1.9000   -0.4335    1.8896 H   0  0  0  0  0  0  0  0  0  0  0  0
   -2.7138   -2.3731    1.2658 H   0  0  0  0  0  0  0  0  0  0  0  0
   -1.1136   -2.8638    0.7757 H   0  0  0  0  0  0  0  0  0  0  0  0
   -2.7532   -3.2460   -1.0072 H   0  0  0  0  0  0  0  0  0  0  0  0
   -1.5087   -2.1272   -1.5094 H   0  0  0  0  0  0  0  0  0  0  0  0
   -4.4256   -1.6058   -0.8700 H   0  0  0  0  0  0  0  0  0  0  0  0
   -3.6737   -2.1223   -3.1371 H   0  0  0  0  0  0  0  0  0  0  0  0
   -4.2852    1.9572   -3.4733 H   0  0  0  0  0  0  0  0  0  0  0  0
   -3.6702    2.3441   -1.1693 H   0  0  0  0  0  0  0  0  0  0  0  0
   -4.1096   -0.4396    1.3432 H   0  0  0  0  0  0  0  0  0  0  0  0
   -5.2627    0.3557    0.2845 H   0  0  0  0  0  0  0  0  0  0  0  0
   -4.0622    1.3159    1.1489 H   0  0  0  0  0  0  0  0  0  0  0  0
   -1.1466    0.1381   -1.0312 H   0  0  0  0  0  0  0  0  0  0  0  0
   -1.4450    2.4883   -0.5352 H   0  0  0  0  0  0  0  0  0  0  0  0
   -1.9191    2.1464    1.1177 H   0  0  0  0  0  0  0  0  0  0  0  0
    0.4403    2.8399    1.0377 H   0  0  0  0  0  0  0  0  0  0  0  0
    0.7739    1.6753   -0.2338 H   0  0  0  0  0  0  0  0  0  0  0  0
   -1.2247    1.2625    3.0033 H   0  0  0  0  0  0  0  0  0  0  0  0
    0.0687    0.4622    3.8830 H   0  0  0  0  0  0  0  0  0  0  0  0
    0.2334    2.1520    3.4170 H   0  0  0  0  0  0  0  0  0  0  0  0
  1  2  1  0
  2  3  1  0
  2  4  1  0
  2  5  1  0
  5  6  1  0
  6  7  2  0
  6  8  1  0
  8  9  1  0
  9 10  1  0
 10 11  1  0
 11 12  1  0
 12 13  1  0
 13 14  1  0
 14 15  1  0
 15 16  1  0
 16 17  1  0
 17 18  2  0
 17 19  1  0
 19 20  2  0
 20 21  1  0
 21 22  1  1
 21 23  1  0
 23 24  1  0
 24 25  1  0
 25 26  1  0
 26 27  1  1
 26  8  1  0
 26 11  1  0
 23 12  1  0
 21 15  1  0
  1 28  1  0
  1 29  1  0
  1 30  1  0
  3 31  1  0
  3 32  1  0
  3 33  1  0
  4 34  1  0
  4 35  1  0
  4 36  1  0
  5 37  1  0
  8 38  1  1
  9 39  1  0
  9 40  1  0
 10 41  1  0
 10 42  1  0
 11 43  1  6
 12 44  1  1
 13 45  1  0
 13 46  1  0
 14 47  1  0
 14 48  1  0
 15 49  1  1
 16 50  1  0
 19 51  1  0
 20 52  1  0
 22 53  1  0
 22 54  1  0
 22 55  1  0
 23 56  1  6
 24 57  1  0
 24 58  1  0
 25 59  1  0
 25 60  1  0
 27 61  1  0
 27 62  1  0
 27 63  1  0
M  END
