
     RDKit          3D

 34 36  0  0  0  0  0  0  0  0999 V2000
   -2.1226    0.2763   -0.7749 O   0  0  0  0  0  0  0  0  0  0  0  0
   -0.8079    0.1352   -0.1839 C   0  0  0  0  0  0  0  0  0  0  0  0
    0.2303    0.7195   -1.1795 C   0  0  0  0  0  0  0  0  0  0  0  0
    1.6042    0.4797   -0.8065 N   0  0  0  0  0  0  0  0  0  0  0  0
    2.5150   -0.3069   -1.4376 C   0  0  0  0  0  0  0  0  0  0  0  0
    3.6567   -0.2550   -0.7916 N   0  0  0  0  0  0  0  0  0  0  0  0
    3.3916    0.6005    0.2379 C   0  0  0  0  0  0  0  0  0  0  0  0
    2.1397    1.0683    0.2801 N   0  0  0  0  0  0  0  0  0  0  0  0
   -0.8181    0.9100    1.1676 C   0  0  0  0  0  0  0  0  0  0  0  0
   -0.9575    2.3456    1.0232 N   0  0  0  0  0  0  0  0  0  0  0  0
   -0.1641    3.3262    1.5254 C   0  0  0  0  0  0  0  0  0  0  0  0
   -0.6484    4.4966    1.1783 N   0  0  0  0  0  0  0  0  0  0  0  0
   -1.7515    4.1726    0.4428 C   0  0  0  0  0  0  0  0  0  0  0  0
   -1.9755    2.8614    0.3021 N   0  0  0  0  0  0  0  0  0  0  0  0
   -0.6428   -1.3862   -0.0147 C   0  0  0  0  0  0  0  0  0  0  0  0
   -0.4609   -2.0042    1.2380 C   0  0  0  0  0  0  0  0  0  0  0  0
   -0.3207   -3.3931    1.3437 C   0  0  0  0  0  0  0  0  0  0  0  0
   -0.3643   -4.1830    0.2034 C   0  0  0  0  0  0  0  0  0  0  0  0
   -0.2299   -5.5105    0.3135 F   0  0  0  0  0  0  0  0  0  0  0  0
   -0.5439   -3.6136   -1.0441 C   0  0  0  0  0  0  0  0  0  0  0  0
   -0.6819   -2.2323   -1.1420 C   0  0  0  0  0  0  0  0  0  0  0  0
   -0.8366   -1.7138   -2.3686 F   0  0  0  0  0  0  0  0  0  0  0  0
   -2.3869    1.2204   -0.6928 H   0  0  0  0  0  0  0  0  0  0  0  0
    0.1140    1.8026   -1.3016 H   0  0  0  0  0  0  0  0  0  0  0  0
    0.0866    0.3221   -2.1903 H   0  0  0  0  0  0  0  0  0  0  0  0
    2.3041   -0.8775   -2.3320 H   0  0  0  0  0  0  0  0  0  0  0  0
    4.1296    0.8861    0.9771 H   0  0  0  0  0  0  0  0  0  0  0  0
   -1.6808    0.6028    1.7739 H   0  0  0  0  0  0  0  0  0  0  0  0
    0.0830    0.7294    1.7618 H   0  0  0  0  0  0  0  0  0  0  0  0
    0.7259    3.1426    2.1123 H   0  0  0  0  0  0  0  0  0  0  0  0
   -2.4044    4.9112   -0.0053 H   0  0  0  0  0  0  0  0  0  0  0  0
   -0.4246   -1.4362    2.1635 H   0  0  0  0  0  0  0  0  0  0  0  0
   -0.1799   -3.8633    2.3130 H   0  0  0  0  0  0  0  0  0  0  0  0
   -0.5779   -4.2337   -1.9322 H   0  0  0  0  0  0  0  0  0  0  0  0
  1  2  1  0
  2  3  1  0
  3  4  1  0
  4  5  1  0
  5  6  2  0
  6  7  1  0
  7  8  2  0
  2  9  1  0
  9 10  1  0
 10 11  1  0
 11 12  2  0
 12 13  1  0
 13 14  2  0
  2 15  1  0
 15 16  1  0
 16 17  2  0
 17 18  1  0
 18 19  1  0
 18 20  2  0
 20 21  1  0
 21 22  1  0
  8  4  1  0
 14 10  1  0
 21 15  2  0
  1 23  1  0
  3 24  1  0
  3 25  1  0
  5 26  1  0
  7 27  1  0
  9 28  1  0
  9 29  1  0
 11 30  1  0
 13 31  1  0
 16 32  1  0
 17 33  1  0
 20 34  1  0
M  END
