
     RDKit          3D

 40 41  0  0  0  0  0  0  0  0999 V2000
   -3.3493    2.2894    1.7255 C   0  0  0  0  0  0  0  0  0  0  0  0
   -2.1483    1.8967    0.9964 N   0  0  0  0  0  0  0  0  0  0  0  0
   -2.5002    1.2515   -0.2721 C   0  0  0  0  0  0  0  0  0  0  0  0
   -1.2485    0.7356   -0.9841 C   0  0  0  0  0  0  0  0  0  0  0  0
   -0.5204   -0.3960   -0.2330 C   0  0  0  0  0  0  0  0  0  0  0  0
    0.7225   -0.6808   -0.9003 O   0  0  0  0  0  0  0  0  0  0  0  0
    1.8492   -0.0021   -0.5318 C   0  0  0  0  0  0  0  0  0  0  0  0
    3.0234   -0.4697   -1.1276 C   0  0  0  0  0  0  0  0  0  0  0  0
    4.2551    0.1296   -0.8519 C   0  0  0  0  0  0  0  0  0  0  0  0
    4.3328    1.2124    0.0333 C   0  0  0  0  0  0  0  0  0  0  0  0
    5.6547    1.8803    0.3199 C   0  0  0  0  0  0  0  0  0  0  0  0
    5.9083    2.9120   -0.5319 F   0  0  0  0  0  0  0  0  0  0  0  0
    6.7184    1.0359    0.2119 F   0  0  0  0  0  0  0  0  0  0  0  0
    5.7260    2.4069    1.5748 F   0  0  0  0  0  0  0  0  0  0  0  0
    3.1499    1.6881    0.6181 C   0  0  0  0  0  0  0  0  0  0  0  0
    1.9175    1.0845    0.3388 C   0  0  0  0  0  0  0  0  0  0  0  0
   -1.3372   -1.6837   -0.2410 C   0  0  0  0  0  0  0  0  0  0  0  0
   -1.4623   -2.4647   -1.4013 C   0  0  0  0  0  0  0  0  0  0  0  0
   -2.2291   -3.6312   -1.3956 C   0  0  0  0  0  0  0  0  0  0  0  0
   -2.8828   -4.0309   -0.2320 C   0  0  0  0  0  0  0  0  0  0  0  0
   -2.7701   -3.2658    0.9269 C   0  0  0  0  0  0  0  0  0  0  0  0
   -2.0029   -2.0995    0.9233 C   0  0  0  0  0  0  0  0  0  0  0  0
   -3.0625    2.7760    2.6628 H   0  0  0  0  0  0  0  0  0  0  0  0
   -3.9594    1.4170    1.9808 H   0  0  0  0  0  0  0  0  0  0  0  0
   -3.9556    2.9964    1.1498 H   0  0  0  0  0  0  0  0  0  0  0  0
   -1.5975    2.7340    0.8025 H   0  0  0  0  0  0  0  0  0  0  0  0
   -2.9993    1.9785   -0.9246 H   0  0  0  0  0  0  0  0  0  0  0  0
   -3.2045    0.4289   -0.1069 H   0  0  0  0  0  0  0  0  0  0  0  0
   -0.5606    1.5735   -1.1553 H   0  0  0  0  0  0  0  0  0  0  0  0
   -1.5277    0.3955   -1.9902 H   0  0  0  0  0  0  0  0  0  0  0  0
   -0.3317   -0.1367    0.8149 H   0  0  0  0  0  0  0  0  0  0  0  0
    2.9773   -1.3137   -1.8127 H   0  0  0  0  0  0  0  0  0  0  0  0
    5.1534   -0.2567   -1.3308 H   0  0  0  0  0  0  0  0  0  0  0  0
    3.1814    2.5369    1.3004 H   0  0  0  0  0  0  0  0  0  0  0  0
    1.0337    1.4969    0.8147 H   0  0  0  0  0  0  0  0  0  0  0  0
   -0.9529   -2.1685   -2.3160 H   0  0  0  0  0  0  0  0  0  0  0  0
   -2.3128   -4.2290   -2.2992 H   0  0  0  0  0  0  0  0  0  0  0  0
   -3.4779   -4.9401   -0.2277 H   0  0  0  0  0  0  0  0  0  0  0  0
   -3.2792   -3.5769    1.8353 H   0  0  0  0  0  0  0  0  0  0  0  0
   -1.9310   -1.5106    1.8358 H   0  0  0  0  0  0  0  0  0  0  0  0
  1  2  1  0
  2  3  1  0
  3  4  1  0
  4  5  1  0
  5  6  1  0
  6  7  1  0
  7  8  1  0
  8  9  2  0
  9 10  1  0
 10 11  1  0
 11 12  1  0
 11 13  1  0
 11 14  1  0
 10 15  2  0
 15 16  1  0
  5 17  1  0
 17 18  2  0
 18 19  1  0
 19 20  2  0
 20 21  1  0
 21 22  2  0
 16  7  2  0
 22 17  1  0
  1 23  1  0
  1 24  1  0
  1 25  1  0
  2 26  1  0
  3 27  1  0
  3 28  1  0
  4 29  1  0
  4 30  1  0
  5 31  1  0
  8 32  1  0
  9 33  1  0
 15 34  1  0
 16 35  1  0
 18 36  1  0
 19 37  1  0
 20 38  1  0
 21 39  1  0
 22 40  1  0
M  END
