
     RDKit          3D

 32 33  0  0  0  0  0  0  0  0999 V2000
   -5.5190    0.7063   -0.0078 N   0  0  0  0  0  0  0  0  0  0  0  0
   -4.7768   -0.4886   -0.9302 S   0  0  0  0  0  0  0  0  0  0  0  0
   -5.0164   -0.1642   -2.3160 O   0  0  0  0  0  0  0  0  0  0  0  0
   -5.1827   -1.7543   -0.3649 O   0  0  0  0  0  0  0  0  0  0  0  0
   -3.0534   -0.2643   -0.5980 C   0  0  0  0  0  0  0  0  0  0  0  0
   -2.3442   -1.3221   -0.0158 C   0  0  0  0  0  0  0  0  0  0  0  0
   -0.9645   -1.2100    0.2357 C   0  0  0  0  0  0  0  0  0  0  0  0
   -0.3270   -2.3999    0.8650 C   0  0  0  0  0  0  0  0  0  0  0  0
   -0.9171   -3.2874    1.4532 O   0  0  0  0  0  0  0  0  0  0  0  0
    1.0061   -2.4622    0.6845 O   0  0  0  0  0  0  0  0  0  0  0  0
   -0.2660   -0.0290   -0.1099 C   0  0  0  0  0  0  0  0  0  0  0  0
    1.0873    0.1489    0.2315 N   0  0  0  0  0  0  0  0  0  0  0  0
    1.9386    0.9905   -0.6154 C   0  0  0  0  0  0  0  0  0  0  0  0
    3.3876    0.8903   -0.2748 C   0  0  0  0  0  0  0  0  0  0  0  0
    4.0932    1.0302    0.9032 C   0  0  0  0  0  0  0  0  0  0  0  0
    5.4545    0.8153    0.5813 C   0  0  0  0  0  0  0  0  0  0  0  0
    5.4931    0.5585   -0.7690 C   0  0  0  0  0  0  0  0  0  0  0  0
    4.2432    0.6016   -1.2979 O   0  0  0  0  0  0  0  0  0  0  0  0
   -1.0149    1.0283   -0.6595 C   0  0  0  0  0  0  0  0  0  0  0  0
   -2.3902    0.9165   -0.9177 C   0  0  0  0  0  0  0  0  0  0  0  0
   -3.1690    2.3105   -1.5762 Cl  0  0  0  0  0  0  0  0  0  0  0  0
   -5.9619    1.3818   -0.6350 H   0  0  0  0  0  0  0  0  0  0  0  0
   -4.9050    1.1605    0.6657 H   0  0  0  0  0  0  0  0  0  0  0  0
   -2.8594   -2.2485    0.2434 H   0  0  0  0  0  0  0  0  0  0  0  0
    1.2547   -3.3077    1.1185 H   0  0  0  0  0  0  0  0  0  0  0  0
    1.5310   -0.7691    0.3685 H   0  0  0  0  0  0  0  0  0  0  0  0
    1.7988    0.7132   -1.6680 H   0  0  0  0  0  0  0  0  0  0  0  0
    1.6500    2.0422   -0.5048 H   0  0  0  0  0  0  0  0  0  0  0  0
    3.6685    1.2556    1.8719 H   0  0  0  0  0  0  0  0  0  0  0  0
    6.3036    0.8426    1.2496 H   0  0  0  0  0  0  0  0  0  0  0  0
    6.2885    0.3371   -1.4671 H   0  0  0  0  0  0  0  0  0  0  0  0
   -0.5312    1.9773   -0.8792 H   0  0  0  0  0  0  0  0  0  0  0  0
  1  2  1  0
  2  3  2  0
  2  4  2  0
  2  5  1  0
  5  6  2  0
  6  7  1  0
  7  8  1  0
  8  9  2  0
  8 10  1  0
  7 11  2  0
 11 12  1  0
 12 13  1  0
 13 14  1  0
 14 15  2  0
 15 16  1  0
 16 17  2  0
 17 18  1  0
 11 19  1  0
 19 20  2  0
 20 21  1  0
 20  5  1  0
 18 14  1  0
  1 22  1  0
  1 23  1  0
  6 24  1  0
 10 25  1  0
 12 26  1  0
 13 27  1  0
 13 28  1  0
 15 29  1  0
 16 30  1  0
 17 31  1  0
 19 32  1  0
M  END
