
     RDKit          3D

 58 60  0  0  0  0  0  0  0  0999 V2000
    8.4536   -1.3030   -2.0915 C   0  0  0  0  0  0  0  0  0  0  0  0
    7.6766   -0.5471   -1.0600 C   0  0  0  0  0  0  0  0  0  0  0  0
    6.2848   -0.6120   -1.0331 C   0  0  0  0  0  0  0  0  0  0  0  0
    5.5304    0.0493   -0.1230 N   0  0  0  0  0  0  0  0  0  0  0  0
    6.2398    0.7901    0.7771 C   0  0  0  0  0  0  0  0  0  0  0  0
    7.6226    0.8581    0.7630 C   0  0  0  0  0  0  0  0  0  0  0  0
    8.3692    0.1925   -0.1567 N   0  0  0  0  0  0  0  0  0  0  0  0
    5.4597    1.5349    1.8053 C   0  0  0  0  0  0  0  0  0  0  0  0
    6.0141    2.1640    2.6983 O   0  0  0  0  0  0  0  0  0  0  0  0
    4.0917    1.4350    1.6570 N   0  0  0  0  0  0  0  0  0  0  0  0
    3.1649    1.8780    2.6775 C   0  0  0  0  0  0  0  0  0  0  0  0
    1.7792    2.2002    2.1126 C   0  0  0  0  0  0  0  0  0  0  0  0
    1.0943    1.0036    1.4911 C   0  0  0  0  0  0  0  0  0  0  0  0
    1.0420    0.8655    0.0958 C   0  0  0  0  0  0  0  0  0  0  0  0
    0.4403   -0.2521   -0.4837 C   0  0  0  0  0  0  0  0  0  0  0  0
   -0.1271   -1.2310    0.3336 C   0  0  0  0  0  0  0  0  0  0  0  0
   -0.0725   -1.1138    1.7254 C   0  0  0  0  0  0  0  0  0  0  0  0
    0.5339    0.0047    2.3002 C   0  0  0  0  0  0  0  0  0  0  0  0
   -0.8526   -2.6761   -0.3978 S   0  0  0  0  0  0  0  0  0  0  0  0
   -0.2867   -2.8830   -1.7114 O   0  0  0  0  0  0  0  0  0  0  0  0
   -0.8068   -3.7307    0.5966 O   0  0  0  0  0  0  0  0  0  0  0  0
   -2.4595   -2.2775   -0.5265 N   0  0  0  0  0  0  0  0  0  0  0  0
   -2.9698   -1.2891   -1.3476 C   0  0  0  0  0  0  0  0  0  0  0  0
   -2.2813   -0.5662   -2.0476 O   0  0  0  0  0  0  0  0  0  0  0  0
   -4.3294   -1.2010   -1.2610 N   0  0  0  0  0  0  0  0  0  0  0  0
   -5.0805   -0.1529   -1.9419 C   0  0  0  0  0  0  0  0  0  0  0  0
   -5.0297    1.1669   -1.1584 C   0  0  0  0  0  0  0  0  0  0  0  0
   -5.8627    1.1201    0.1218 C   0  0  0  0  0  0  0  0  0  0  0  0
   -7.3019    0.7014   -0.1600 C   0  0  0  0  0  0  0  0  0  0  0  0
   -7.3689   -0.6239   -0.9117 C   0  0  0  0  0  0  0  0  0  0  0  0
   -6.5288   -0.5947   -2.1888 C   0  0  0  0  0  0  0  0  0  0  0  0
    9.5272   -1.1190   -1.9831 H   0  0  0  0  0  0  0  0  0  0  0  0
    8.1541   -0.9908   -3.0961 H   0  0  0  0  0  0  0  0  0  0  0  0
    8.2785   -2.3780   -1.9835 H   0  0  0  0  0  0  0  0  0  0  0  0
    5.7326   -1.2082   -1.7530 H   0  0  0  0  0  0  0  0  0  0  0  0
    8.1743    1.4476    1.4874 H   0  0  0  0  0  0  0  0  0  0  0  0
    3.7840    0.7410    0.9768 H   0  0  0  0  0  0  0  0  0  0  0  0
    3.5768    2.7674    3.1673 H   0  0  0  0  0  0  0  0  0  0  0  0
    3.1115    1.0842    3.4310 H   0  0  0  0  0  0  0  0  0  0  0  0
    1.8620    3.0038    1.3700 H   0  0  0  0  0  0  0  0  0  0  0  0
    1.1405    2.5917    2.9137 H   0  0  0  0  0  0  0  0  0  0  0  0
    1.4780    1.6253   -0.5505 H   0  0  0  0  0  0  0  0  0  0  0  0
    0.4095   -0.3479   -1.5679 H   0  0  0  0  0  0  0  0  0  0  0  0
   -0.4872   -1.8875    2.3673 H   0  0  0  0  0  0  0  0  0  0  0  0
    0.5753    0.0881    3.3846 H   0  0  0  0  0  0  0  0  0  0  0  0
   -3.0541   -2.8504    0.0552 H   0  0  0  0  0  0  0  0  0  0  0  0
   -4.7977   -1.7520   -0.5606 H   0  0  0  0  0  0  0  0  0  0  0  0
   -4.5986    0.0075   -2.9141 H   0  0  0  0  0  0  0  0  0  0  0  0
   -3.9953    1.4297   -0.9067 H   0  0  0  0  0  0  0  0  0  0  0  0
   -5.4131    1.9726   -1.7976 H   0  0  0  0  0  0  0  0  0  0  0  0
   -5.4092    0.4209    0.8351 H   0  0  0  0  0  0  0  0  0  0  0  0
   -5.8565    2.1075    0.5980 H   0  0  0  0  0  0  0  0  0  0  0  0
   -7.7982    1.4806   -0.7518 H   0  0  0  0  0  0  0  0  0  0  0  0
   -7.8533    0.6187    0.7831 H   0  0  0  0  0  0  0  0  0  0  0  0
   -8.4119   -0.8477   -1.1651 H   0  0  0  0  0  0  0  0  0  0  0  0
   -7.0244   -1.4332   -0.2571 H   0  0  0  0  0  0  0  0  0  0  0  0
   -6.5492   -1.5846   -2.6599 H   0  0  0  0  0  0  0  0  0  0  0  0
   -6.9945    0.1028   -2.8968 H   0  0  0  0  0  0  0  0  0  0  0  0
  1  2  1  0
  2  3  1  0
  3  4  2  0
  4  5  1  0
  5  6  2  0
  6  7  1  0
  5  8  1  0
  8  9  2  0
  8 10  1  0
 10 11  1  0
 11 12  1  0
 12 13  1  0
 13 14  1  0
 14 15  2  0
 15 16  1  0
 16 17  2  0
 17 18  1  0
 16 19  1  0
 19 20  2  0
 19 21  2  0
 19 22  1  0
 22 23  1  0
 23 24  2  0
 23 25  1  0
 25 26  1  0
 26 27  1  0
 27 28  1  0
 28 29  1  0
 29 30  1  0
 30 31  1  0
  7  2  2  0
 18 13  2  0
 31 26  1  0
  1 32  1  0
  1 33  1  0
  1 34  1  0
  3 35  1  0
  6 36  1  0
 10 37  1  0
 11 38  1  0
 11 39  1  0
 12 40  1  0
 12 41  1  0
 14 42  1  0
 15 43  1  0
 17 44  1  0
 18 45  1  0
 22 46  1  0
 25 47  1  0
 26 48  1  0
 27 49  1  0
 27 50  1  0
 28 51  1  0
 28 52  1  0
 29 53  1  0
 29 54  1  0
 30 55  1  0
 30 56  1  0
 31 57  1  0
 31 58  1  0
M  END
