
     RDKit          3D

 25 26  0  0  0  0  0  0  0  0999 V2000
   -3.7494   -0.9415    0.3611 N   0  0  0  0  0  0  0  0  0  0  0  0
   -3.3581    0.6597    0.0181 S   0  0  0  0  0  0  0  0  0  0  0  0
   -3.7444    1.3907    1.2011 O   0  0  0  0  0  0  0  0  0  0  0  0
   -3.9152    0.9022   -1.2908 O   0  0  0  0  0  0  0  0  0  0  0  0
   -1.5997    0.6761   -0.1049 C   0  0  0  0  0  0  0  0  0  0  0  0
   -0.8702   -0.5069    0.0473 C   0  0  0  0  0  0  0  0  0  0  0  0
    0.5258   -0.4664   -0.0482 C   0  0  0  0  0  0  0  0  0  0  0  0
    1.2273    0.7191   -0.2772 C   0  0  0  0  0  0  0  0  0  0  0  0
    0.4697    1.8831   -0.4665 C   0  0  0  0  0  0  0  0  0  0  0  0
   -0.9321    1.8740   -0.3676 C   0  0  0  0  0  0  0  0  0  0  0  0
   -1.7379    3.3836   -0.5992 Cl  0  0  0  0  0  0  0  0  0  0  0  0
    2.6119    0.7681   -0.4794 N   0  0  0  0  0  0  0  0  0  0  0  0
    3.4075   -0.3112    0.0569 C   0  0  0  0  0  0  0  0  0  0  0  0
    2.9280   -1.5456   -0.4985 N   0  0  0  0  0  0  0  0  0  0  0  0
    1.4264   -1.9723    0.0953 S   0  0  0  0  0  0  0  0  0  0  0  0
    0.8609   -2.9184   -0.8396 O   0  0  0  0  0  0  0  0  0  0  0  0
    1.5539   -2.2562    1.5066 O   0  0  0  0  0  0  0  0  0  0  0  0
   -4.2127   -0.9862    1.2711 H   0  0  0  0  0  0  0  0  0  0  0  0
   -4.3216   -1.3173   -0.3981 H   0  0  0  0  0  0  0  0  0  0  0  0
   -1.3625   -1.4595    0.2302 H   0  0  0  0  0  0  0  0  0  0  0  0
    0.9748    2.8188   -0.7015 H   0  0  0  0  0  0  0  0  0  0  0  0
    3.0068    1.6807   -0.2582 H   0  0  0  0  0  0  0  0  0  0  0  0
    3.4086   -0.3141    1.1528 H   0  0  0  0  0  0  0  0  0  0  0  0
    4.4466   -0.1706   -0.2586 H   0  0  0  0  0  0  0  0  0  0  0  0
    2.9556   -1.5900   -1.5142 H   0  0  0  0  0  0  0  0  0  0  0  0
  1  2  1  0
  2  3  2  0
  2  4  2  0
  2  5  1  0
  5  6  2  0
  6  7  1  0
  7  8  2  0
  8  9  1  0
  9 10  2  0
 10 11  1  0
  8 12  1  0
 12 13  1  0
 13 14  1  0
 14 15  1  0
 15 16  2  0
 15 17  2  0
 10  5  1  0
 15  7  1  0
  1 18  1  0
  1 19  1  0
  6 20  1  0
  9 21  1  0
 12 22  1  0
 13 23  1  0
 13 24  1  0
 14 25  1  0
M  END
