
     RDKit          3D

 49 50  0  0  0  0  0  0  0  0999 V2000
   -3.9266    2.4826   -0.1872 C   0  0  0  0  0  0  0  0  0  0  0  0
   -4.3975    1.0315   -0.1809 C   0  0  0  0  0  0  0  0  0  0  0  0
   -3.9221    0.2897    0.9862 N   0  0  0  0  0  0  0  0  0  0  0  0
   -4.6923   -0.9330    1.2539 C   0  0  0  0  0  0  0  0  0  0  0  0
   -4.5666   -2.0911    0.2559 C   0  0  0  0  0  0  0  0  0  0  0  0
   -5.5113   -3.1079    0.5832 O   0  0  0  0  0  0  0  0  0  0  0  0
   -2.4711    0.1443    1.1323 C   0  0  0  0  0  0  0  0  0  0  0  0
   -1.6745   -0.2564   -0.1201 C   0  0  0  0  0  0  0  0  0  0  0  0
   -0.1898   -0.4421    0.2164 C   0  0  0  0  0  0  0  0  0  0  0  0
    0.6819   -0.7217   -1.0234 C   0  0  0  0  0  0  0  0  0  0  0  0
    0.3779   -2.1038   -1.6154 C   0  0  0  0  0  0  0  0  0  0  0  0
    2.0972   -0.6911   -0.6317 N   0  0  0  0  0  0  0  0  0  0  0  0
    2.8565    0.4949   -0.6125 C   0  0  0  0  0  0  0  0  0  0  0  0
    2.2769    1.7554   -0.7650 C   0  0  0  0  0  0  0  0  0  0  0  0
    3.0787    2.8800   -0.7153 C   0  0  0  0  0  0  0  0  0  0  0  0
    4.4065    2.8493   -0.5043 N   0  0  0  0  0  0  0  0  0  0  0  0
    4.9782    1.6566   -0.2976 C   0  0  0  0  0  0  0  0  0  0  0  0
    6.3408    1.6379   -0.0412 C   0  0  0  0  0  0  0  0  0  0  0  0
    7.0137    0.4465    0.2111 C   0  0  0  0  0  0  0  0  0  0  0  0
    8.7045    0.4662    0.5286 Cl  0  0  0  0  0  0  0  0  0  0  0  0
    6.3263   -0.7573    0.2170 C   0  0  0  0  0  0  0  0  0  0  0  0
    4.9561   -0.7606   -0.0440 C   0  0  0  0  0  0  0  0  0  0  0  0
    4.2530    0.4391   -0.3210 C   0  0  0  0  0  0  0  0  0  0  0  0
   -4.2214    2.9950    0.7348 H   0  0  0  0  0  0  0  0  0  0  0  0
   -4.3819    3.0180   -1.0269 H   0  0  0  0  0  0  0  0  0  0  0  0
   -2.8411    2.5644   -0.2940 H   0  0  0  0  0  0  0  0  0  0  0  0
   -4.1092    0.5415   -1.1177 H   0  0  0  0  0  0  0  0  0  0  0  0
   -5.4947    1.0583   -0.1712 H   0  0  0  0  0  0  0  0  0  0  0  0
   -5.7544   -0.6674    1.3469 H   0  0  0  0  0  0  0  0  0  0  0  0
   -4.4378   -1.3076    2.2547 H   0  0  0  0  0  0  0  0  0  0  0  0
   -4.7706   -1.7597   -0.7664 H   0  0  0  0  0  0  0  0  0  0  0  0
   -3.5707   -2.5394    0.3006 H   0  0  0  0  0  0  0  0  0  0  0  0
   -5.4037   -3.8186   -0.0717 H   0  0  0  0  0  0  0  0  0  0  0  0
   -2.0781    1.1041    1.4922 H   0  0  0  0  0  0  0  0  0  0  0  0
   -2.2537   -0.5626    1.9438 H   0  0  0  0  0  0  0  0  0  0  0  0
   -1.7642    0.5173   -0.8904 H   0  0  0  0  0  0  0  0  0  0  0  0
   -2.0732   -1.1802   -0.5440 H   0  0  0  0  0  0  0  0  0  0  0  0
   -0.0768   -1.2595    0.9409 H   0  0  0  0  0  0  0  0  0  0  0  0
    0.1669    0.4612    0.7261 H   0  0  0  0  0  0  0  0  0  0  0  0
    0.4832    0.0125   -1.8130 H   0  0  0  0  0  0  0  0  0  0  0  0
   -0.6485   -2.1639   -1.9888 H   0  0  0  0  0  0  0  0  0  0  0  0
    0.5211   -2.8961   -0.8722 H   0  0  0  0  0  0  0  0  0  0  0  0
    1.0447   -2.3186   -2.4584 H   0  0  0  0  0  0  0  0  0  0  0  0
    2.6350   -1.4490   -1.0460 H   0  0  0  0  0  0  0  0  0  0  0  0
    1.2169    1.8931   -0.9331 H   0  0  0  0  0  0  0  0  0  0  0  0
    2.6555    3.8719   -0.8477 H   0  0  0  0  0  0  0  0  0  0  0  0
    6.8835    2.5800   -0.0321 H   0  0  0  0  0  0  0  0  0  0  0  0
    6.8415   -1.6904    0.4278 H   0  0  0  0  0  0  0  0  0  0  0  0
    4.4350   -1.7135   -0.0092 H   0  0  0  0  0  0  0  0  0  0  0  0
  1  2  1  0
  2  3  1  0
  3  4  1  0
  4  5  1  0
  5  6  1  0
  3  7  1  0
  7  8  1  0
  8  9  1  0
  9 10  1  0
 10 11  1  0
 10 12  1  0
 12 13  1  0
 13 14  2  0
 14 15  1  0
 15 16  2  0
 16 17  1  0
 17 18  2  0
 18 19  1  0
 19 20  1  0
 19 21  2  0
 21 22  1  0
 22 23  2  0
 23 13  1  0
 23 17  1  0
  1 24  1  0
  1 25  1  0
  1 26  1  0
  2 27  1  0
  2 28  1  0
  4 29  1  0
  4 30  1  0
  5 31  1  0
  5 32  1  0
  6 33  1  0
  7 34  1  0
  7 35  1  0
  8 36  1  0
  8 37  1  0
  9 38  1  0
  9 39  1  0
 10 40  1  0
 11 41  1  0
 11 42  1  0
 11 43  1  0
 12 44  1  0
 14 45  1  0
 15 46  1  0
 18 47  1  0
 21 48  1  0
 22 49  1  0
M  END
