
     RDKit          3D

 20 21  0  0  0  0  0  0  0  0999 V2000
    4.1451    0.2287   -0.1388 N   0  0  0  0  0  0  0  0  0  0  0  0
    3.0578   -0.6855   -0.1558 N   0  0  0  0  0  0  0  0  0  0  0  0
    1.7501   -0.1295   -0.0678 C   0  0  0  0  0  0  0  0  0  0  0  0
    1.5587    1.2055   -0.0298 N   0  0  0  0  0  0  0  0  0  0  0  0
    0.2854    1.7347    0.0322 N   0  0  0  0  0  0  0  0  0  0  0  0
   -0.7904    0.9347    0.0366 C   0  0  0  0  0  0  0  0  0  0  0  0
   -2.0752    1.4647    0.0948 C   0  0  0  0  0  0  0  0  0  0  0  0
   -3.2046    0.6421    0.0955 C   0  0  0  0  0  0  0  0  0  0  0  0
   -3.0531   -0.7387    0.0362 C   0  0  0  0  0  0  0  0  0  0  0  0
   -1.7742   -1.2908   -0.0222 C   0  0  0  0  0  0  0  0  0  0  0  0
   -0.6386   -0.4603   -0.0206 C   0  0  0  0  0  0  0  0  0  0  0  0
    0.6589   -0.9857   -0.0770 C   0  0  0  0  0  0  0  0  0  0  0  0
    4.1194    0.7792   -1.0046 H   0  0  0  0  0  0  0  0  0  0  0  0
    3.9879    0.9327    0.5926 H   0  0  0  0  0  0  0  0  0  0  0  0
    3.1474   -1.4448    0.5235 H   0  0  0  0  0  0  0  0  0  0  0  0
   -2.1972    2.5445    0.1388 H   0  0  0  0  0  0  0  0  0  0  0  0
   -4.1974    1.0830    0.1406 H   0  0  0  0  0  0  0  0  0  0  0  0
   -3.9277   -1.3846    0.0345 H   0  0  0  0  0  0  0  0  0  0  0  0
   -1.6686   -2.3726   -0.0696 H   0  0  0  0  0  0  0  0  0  0  0  0
    0.8162   -2.0576   -0.1392 H   0  0  0  0  0  0  0  0  0  0  0  0
  1  2  1  0
  2  3  1  0
  3  4  1  0
  4  5  2  0
  5  6  1  0
  6  7  2  0
  7  8  1  0
  8  9  2  0
  9 10  1  0
 10 11  2  0
 11 12  1  0
 12  3  2  0
 11  6  1  0
  1 13  1  0
  1 14  1  0
  2 15  1  0
  7 16  1  0
  8 17  1  0
  9 18  1  0
 10 19  1  0
 12 20  1  0
M  END
