
     RDKit          3D

 53 55  0  0  0  0  0  0  0  0999 V2000
    8.4163   -0.3892   -1.0637 O   0  0  0  0  0  0  0  0  0  0  0  0
    7.5371   -0.8158   -0.0298 C   0  0  0  0  0  0  0  0  0  0  0  0
    6.0804   -0.6179   -0.4375 C   0  0  0  0  0  0  0  0  0  0  0  0
    5.2343   -0.9904    0.6476 O   0  0  0  0  0  0  0  0  0  0  0  0
    3.8409   -0.9618    0.3165 C   0  0  0  0  0  0  0  0  0  0  0  0
    3.2775    0.4728    0.3286 C   0  0  0  0  0  0  0  0  0  0  0  0
    1.8314    0.6485    0.1434 N   0  0  0  0  0  0  0  0  0  0  0  0
    1.0323    0.0893    1.2472 C   0  0  0  0  0  0  0  0  0  0  0  0
   -0.4801    0.3582    1.0531 C   0  0  0  0  0  0  0  0  0  0  0  0
   -0.9615   -0.1914   -0.2278 N   0  0  0  0  0  0  0  0  0  0  0  0
   -2.4273   -0.1102   -0.4451 C   0  0  0  0  0  0  0  0  0  0  0  0
   -3.0150    1.2997   -0.2910 C   0  0  0  0  0  0  0  0  0  0  0  0
   -3.1986    2.1092   -1.4259 C   0  0  0  0  0  0  0  0  0  0  0  0
   -3.7318    3.3945   -1.3101 C   0  0  0  0  0  0  0  0  0  0  0  0
   -4.0903    3.8915   -0.0594 C   0  0  0  0  0  0  0  0  0  0  0  0
   -3.9163    3.1054    1.0768 C   0  0  0  0  0  0  0  0  0  0  0  0
   -3.3826    1.8202    0.9631 C   0  0  0  0  0  0  0  0  0  0  0  0
   -3.2191   -1.2178    0.2887 C   0  0  0  0  0  0  0  0  0  0  0  0
   -2.5821   -2.3324    0.8661 C   0  0  0  0  0  0  0  0  0  0  0  0
   -3.3175   -3.3480    1.4860 C   0  0  0  0  0  0  0  0  0  0  0  0
   -4.7061   -3.2765    1.5183 C   0  0  0  0  0  0  0  0  0  0  0  0
   -5.6112   -4.5258    2.2795 Cl  0  0  0  0  0  0  0  0  0  0  0  0
   -5.3660   -2.2051    0.9261 C   0  0  0  0  0  0  0  0  0  0  0  0
   -4.6287   -1.1913    0.3065 C   0  0  0  0  0  0  0  0  0  0  0  0
   -0.1774    0.3908   -1.3315 C   0  0  0  0  0  0  0  0  0  0  0  0
    1.3392    0.1382   -1.1464 C   0  0  0  0  0  0  0  0  0  0  0  0
    8.3770    0.5822   -1.0939 H   0  0  0  0  0  0  0  0  0  0  0  0
    7.7310   -1.8736    0.1764 H   0  0  0  0  0  0  0  0  0  0  0  0
    7.7684   -0.2643    0.8880 H   0  0  0  0  0  0  0  0  0  0  0  0
    5.9166    0.4310   -0.7062 H   0  0  0  0  0  0  0  0  0  0  0  0
    5.8615   -1.2283   -1.3216 H   0  0  0  0  0  0  0  0  0  0  0  0
    3.3407   -1.5634    1.0813 H   0  0  0  0  0  0  0  0  0  0  0  0
    3.6789   -1.4579   -0.6467 H   0  0  0  0  0  0  0  0  0  0  0  0
    3.7872    1.0619   -0.4434 H   0  0  0  0  0  0  0  0  0  0  0  0
    3.5765    0.9559    1.2685 H   0  0  0  0  0  0  0  0  0  0  0  0
    1.3423    0.5469    2.1942 H   0  0  0  0  0  0  0  0  0  0  0  0
    1.1857   -0.9932    1.3378 H   0  0  0  0  0  0  0  0  0  0  0  0
   -0.6410    1.4420    1.1069 H   0  0  0  0  0  0  0  0  0  0  0  0
   -1.0128   -0.0980    1.8948 H   0  0  0  0  0  0  0  0  0  0  0  0
   -2.5928   -0.3994   -1.4950 H   0  0  0  0  0  0  0  0  0  0  0  0
   -2.9240    1.7414   -2.4122 H   0  0  0  0  0  0  0  0  0  0  0  0
   -3.8661    4.0087   -2.1968 H   0  0  0  0  0  0  0  0  0  0  0  0
   -4.5044    4.8924    0.0302 H   0  0  0  0  0  0  0  0  0  0  0  0
   -4.1954    3.4919    2.0536 H   0  0  0  0  0  0  0  0  0  0  0  0
   -3.2574    1.2216    1.8631 H   0  0  0  0  0  0  0  0  0  0  0  0
   -1.4987   -2.4275    0.8328 H   0  0  0  0  0  0  0  0  0  0  0  0
   -2.7982   -4.1920    1.9316 H   0  0  0  0  0  0  0  0  0  0  0  0
   -6.4513   -2.1523    0.9354 H   0  0  0  0  0  0  0  0  0  0  0  0
   -5.1712   -0.3739   -0.1664 H   0  0  0  0  0  0  0  0  0  0  0  0
   -0.4772   -0.0631   -2.2838 H   0  0  0  0  0  0  0  0  0  0  0  0
   -0.3496    1.4713   -1.4116 H   0  0  0  0  0  0  0  0  0  0  0  0
    1.8722    0.6343   -1.9662 H   0  0  0  0  0  0  0  0  0  0  0  0
    1.5244   -0.9395   -1.2376 H   0  0  0  0  0  0  0  0  0  0  0  0
  1  2  1  0
  2  3  1  0
  3  4  1  0
  4  5  1  0
  5  6  1  0
  6  7  1  0
  7  8  1  0
  8  9  1  0
  9 10  1  0
 10 11  1  0
 11 12  1  0
 12 13  2  0
 13 14  1  0
 14 15  2  0
 15 16  1  0
 16 17  2  0
 11 18  1  0
 18 19  1  0
 19 20  2  0
 20 21  1  0
 21 22  1  0
 21 23  2  0
 23 24  1  0
 10 25  1  0
 25 26  1  0
 26  7  1  0
 17 12  1  0
 24 18  2  0
  1 27  1  0
  2 28  1  0
  2 29  1  0
  3 30  1  0
  3 31  1  0
  5 32  1  0
  5 33  1  0
  6 34  1  0
  6 35  1  0
  8 36  1  0
  8 37  1  0
  9 38  1  0
  9 39  1  0
 11 40  1  0
 13 41  1  0
 14 42  1  0
 15 43  1  0
 16 44  1  0
 17 45  1  0
 19 46  1  0
 20 47  1  0
 23 48  1  0
 24 49  1  0
 25 50  1  0
 25 51  1  0
 26 52  1  0
 26 53  1  0
M  END
