
     RDKit          3D

 56 59  0  0  0  0  0  0  0  0999 V2000
   -2.9140    1.6261    1.4790 C   0  0  0  0  0  0  0  0  0  0  0  0
   -2.5012    0.5882    0.4056 C   0  0  0  0  0  0  0  0  0  0  0  0
   -3.0579    1.0388   -0.9691 C   0  0  0  0  0  0  0  0  0  0  0  0
   -4.5822    1.0066   -1.0670 C   0  0  0  0  0  0  0  0  0  0  0  0
   -5.1536   -0.3112   -0.6164 C   0  0  0  0  0  0  0  0  0  0  0  0
   -6.2764   -0.6845   -0.9493 O   0  0  0  0  0  0  0  0  0  0  0  0
   -4.3500   -1.1565    0.2924 C   0  0  0  0  0  0  0  0  0  0  0  0
   -3.1560   -0.7529    0.7594 C   0  0  0  0  0  0  0  0  0  0  0  0
   -2.3339   -1.6694    1.6153 C   0  0  0  0  0  0  0  0  0  0  0  0
   -1.0790   -2.0925    0.8571 C   0  0  0  0  0  0  0  0  0  0  0  0
   -0.4380   -0.9719   -0.0027 C   0  0  0  0  0  0  0  0  0  0  0  0
   -0.9156    0.4476    0.4472 C   0  0  0  0  0  0  0  0  0  0  0  0
   -0.1050    1.6147   -0.2015 C   0  0  0  0  0  0  0  0  0  0  0  0
   -0.4697    1.8357   -1.5556 O   0  0  0  0  0  0  0  0  0  0  0  0
    1.4232    1.3954   -0.1531 C   0  0  0  0  0  0  0  0  0  0  0  0
    1.8483    0.0156   -0.7031 C   0  0  0  0  0  0  0  0  0  0  0  0
    1.5641   -0.0699   -2.2320 C   0  0  0  0  0  0  0  0  0  0  0  0
    1.0938   -1.0563    0.1054 C   0  0  0  0  0  0  0  0  0  0  0  0
    1.7868   -2.3553   -0.2946 C   0  0  0  0  0  0  0  0  0  0  0  0
    3.2669   -1.9620   -0.4740 C   0  0  0  0  0  0  0  0  0  0  0  0
    3.3313   -0.4092   -0.4383 C   0  0  0  0  0  0  0  0  0  0  0  0
    4.2148    0.0189   -1.4724 O   0  0  0  0  0  0  0  0  0  0  0  0
    3.8858    0.0591    0.9343 C   0  0  0  0  0  0  0  0  0  0  0  0
    3.5854   -0.4811    2.0042 O   0  0  0  0  0  0  0  0  0  0  0  0
    4.8261    1.2598    0.9348 C   0  0  0  0  0  0  0  0  0  0  0  0
    4.9590    1.8160    2.2355 O   0  0  0  0  0  0  0  0  0  0  0  0
   -4.0012    1.6910    1.5968 H   0  0  0  0  0  0  0  0  0  0  0  0
   -2.5507    2.6269    1.2221 H   0  0  0  0  0  0  0  0  0  0  0  0
   -2.5076    1.3688    2.4642 H   0  0  0  0  0  0  0  0  0  0  0  0
   -2.6470    0.3946   -1.7580 H   0  0  0  0  0  0  0  0  0  0  0  0
   -2.7555    2.0678   -1.1910 H   0  0  0  0  0  0  0  0  0  0  0  0
   -5.0341    1.8009   -0.4641 H   0  0  0  0  0  0  0  0  0  0  0  0
   -4.8733    1.1687   -2.1110 H   0  0  0  0  0  0  0  0  0  0  0  0
   -4.7851   -2.1184    0.5401 H   0  0  0  0  0  0  0  0  0  0  0  0
   -2.0618   -1.1550    2.5451 H   0  0  0  0  0  0  0  0  0  0  0  0
   -2.8923   -2.5633    1.9185 H   0  0  0  0  0  0  0  0  0  0  0  0
   -0.3680   -2.4855    1.5942 H   0  0  0  0  0  0  0  0  0  0  0  0
   -1.3173   -2.9367    0.1962 H   0  0  0  0  0  0  0  0  0  0  0  0
   -0.7512   -1.1346   -1.0405 H   0  0  0  0  0  0  0  0  0  0  0  0
   -0.6332    0.5009    1.5121 H   0  0  0  0  0  0  0  0  0  0  0  0
   -0.3370    2.5392    0.3402 H   0  0  0  0  0  0  0  0  0  0  0  0
   -0.0832    2.6831   -1.8372 H   0  0  0  0  0  0  0  0  0  0  0  0
    1.9345    2.1853   -0.7169 H   0  0  0  0  0  0  0  0  0  0  0  0
    1.7332    1.4989    0.8934 H   0  0  0  0  0  0  0  0  0  0  0  0
    2.0289   -0.9477   -2.6937 H   0  0  0  0  0  0  0  0  0  0  0  0
    1.9612    0.8101   -2.7508 H   0  0  0  0  0  0  0  0  0  0  0  0
    0.5011   -0.1362   -2.4710 H   0  0  0  0  0  0  0  0  0  0  0  0
    1.3162   -0.9062    1.1725 H   0  0  0  0  0  0  0  0  0  0  0  0
    1.3811   -2.7513   -1.2324 H   0  0  0  0  0  0  0  0  0  0  0  0
    1.6776   -3.1347    0.4661 H   0  0  0  0  0  0  0  0  0  0  0  0
    3.6445   -2.3636   -1.4220 H   0  0  0  0  0  0  0  0  0  0  0  0
    3.8748   -2.4153    0.3175 H   0  0  0  0  0  0  0  0  0  0  0  0
    3.9617    0.9137   -1.7578 H   0  0  0  0  0  0  0  0  0  0  0  0
    4.4316    2.0414    0.2814 H   0  0  0  0  0  0  0  0  0  0  0  0
    5.8120    0.9423    0.5852 H   0  0  0  0  0  0  0  0  0  0  0  0
    4.8870    1.0653    2.8594 H   0  0  0  0  0  0  0  0  0  0  0  0
  1  2  1  0
  2  3  1  0
  3  4  1  0
  4  5  1  0
  5  6  2  0
  5  7  1  0
  7  8  2  0
  8  9  1  0
  9 10  1  0
 10 11  1  0
 11 12  1  0
 12 13  1  0
 13 14  1  0
 13 15  1  0
 15 16  1  0
 16 17  1  0
 16 18  1  0
 18 19  1  0
 19 20  1  0
 20 21  1  0
 21 22  1  0
 21 23  1  0
 23 24  2  0
 23 25  1  0
 25 26  1  0
  8  2  1  0
 18 11  1  0
 12  2  1  0
 21 16  1  0
  1 27  1  0
  1 28  1  0
  1 29  1  0
  3 30  1  0
  3 31  1  0
  4 32  1  0
  4 33  1  0
  7 34  1  0
  9 35  1  0
  9 36  1  0
 10 37  1  0
 10 38  1  0
 11 39  1  0
 12 40  1  0
 13 41  1  0
 14 42  1  0
 15 43  1  0
 15 44  1  0
 17 45  1  0
 17 46  1  0
 17 47  1  0
 18 48  1  0
 19 49  1  0
 19 50  1  0
 20 51  1  0
 20 52  1  0
 22 53  1  0
 25 54  1  0
 25 55  1  0
 26 56  1  0
M  END
