
     RDKit          3D

 33 33  0  0  0  0  0  0  0  0999 V2000
   -3.2949    1.0807   -0.1129 C   0  0  0  0  0  0  0  0  0  0  0  0
   -3.2448   -0.4007    0.2698 C   0  0  0  0  0  0  0  0  0  0  0  0
   -4.6128   -1.0426    0.0255 C   0  0  0  0  0  0  0  0  0  0  0  0
   -2.1620   -1.1645   -0.5175 C   0  0  0  0  0  0  0  0  0  0  0  0
   -0.7516   -0.7450   -0.1784 C   0  0  0  0  0  0  0  0  0  0  0  0
    0.0059    0.0064   -1.0836 C   0  0  0  0  0  0  0  0  0  0  0  0
    1.3096    0.3970   -0.7670 C   0  0  0  0  0  0  0  0  0  0  0  0
    1.8840    0.0478    0.4638 C   0  0  0  0  0  0  0  0  0  0  0  0
    3.3009    0.4572    0.8234 C   0  0  0  0  0  0  0  0  0  0  0  0
    3.5034    1.9743    0.7813 C   0  0  0  0  0  0  0  0  0  0  0  0
    4.3278   -0.2882   -0.0099 C   0  0  0  0  0  0  0  0  0  0  0  0
    4.7998   -1.3849    0.2517 O   0  0  0  0  0  0  0  0  0  0  0  0
    4.6850    0.3372   -1.1497 O   0  0  0  0  0  0  0  0  0  0  0  0
    1.1248   -0.7122    1.3646 C   0  0  0  0  0  0  0  0  0  0  0  0
   -0.1788   -1.1026    1.0475 C   0  0  0  0  0  0  0  0  0  0  0  0
   -3.4726    1.2081   -1.1861 H   0  0  0  0  0  0  0  0  0  0  0  0
   -2.3594    1.5893    0.1404 H   0  0  0  0  0  0  0  0  0  0  0  0
   -4.1000    1.5927    0.4253 H   0  0  0  0  0  0  0  0  0  0  0  0
   -3.0323   -0.4674    1.3444 H   0  0  0  0  0  0  0  0  0  0  0  0
   -4.8883   -1.0010   -1.0338 H   0  0  0  0  0  0  0  0  0  0  0  0
   -5.3918   -0.5289    0.5988 H   0  0  0  0  0  0  0  0  0  0  0  0
   -4.6103   -2.0931    0.3349 H   0  0  0  0  0  0  0  0  0  0  0  0
   -2.3357   -1.0527   -1.5959 H   0  0  0  0  0  0  0  0  0  0  0  0
   -2.2463   -2.2410   -0.3163 H   0  0  0  0  0  0  0  0  0  0  0  0
   -0.4138    0.2954   -2.0445 H   0  0  0  0  0  0  0  0  0  0  0  0
    1.8735    0.9748   -1.4967 H   0  0  0  0  0  0  0  0  0  0  0  0
    3.5039    0.1611    1.8623 H   0  0  0  0  0  0  0  0  0  0  0  0
    4.5249    2.2343    1.0806 H   0  0  0  0  0  0  0  0  0  0  0  0
    3.3421    2.3912   -0.2187 H   0  0  0  0  0  0  0  0  0  0  0  0
    2.8112    2.4781    1.4652 H   0  0  0  0  0  0  0  0  0  0  0  0
    5.3008   -0.2956   -1.5757 H   0  0  0  0  0  0  0  0  0  0  0  0
    1.5423   -1.0122    2.3236 H   0  0  0  0  0  0  0  0  0  0  0  0
   -0.7446   -1.6929    1.7649 H   0  0  0  0  0  0  0  0  0  0  0  0
  1  2  1  0
  2  3  1  0
  2  4  1  0
  4  5  1  0
  5  6  1  0
  6  7  2  0
  7  8  1  0
  8  9  1  0
  9 10  1  0
  9 11  1  0
 11 12  2  0
 11 13  1  0
  8 14  2  0
 14 15  1  0
 15  5  2  0
  1 16  1  0
  1 17  1  0
  1 18  1  0
  2 19  1  0
  3 20  1  0
  3 21  1  0
  3 22  1  0
  4 23  1  0
  4 24  1  0
  6 25  1  0
  7 26  1  0
  9 27  1  0
 10 28  1  0
 10 29  1  0
 10 30  1  0
 13 31  1  0
 14 32  1  0
 15 33  1  0
M  END
