
     RDKit          3D

 32 33  0  0  0  0  0  0  0  0999 V2000
   -0.5041    2.6558    0.1997 C   0  0  0  0  0  0  0  0  0  0  0  0
   -0.6533    1.5211   -0.6924 N   0  0  0  0  0  0  0  0  0  0  0  0
   -0.2786    0.1656   -0.1820 C   0  0  0  0  0  0  0  0  0  0  0  0
   -0.7838   -0.0402    1.2770 C   0  0  0  0  0  0  0  0  0  0  0  0
   -2.3043   -0.1115    1.4071 C   0  0  0  0  0  0  0  0  0  0  0  0
   -2.8556   -1.2282    0.5339 C   0  0  0  0  0  0  0  0  0  0  0  0
   -2.5361   -0.9882   -0.9294 C   0  0  0  0  0  0  0  0  0  0  0  0
   -1.0547   -0.7751   -1.1764 C   0  0  0  0  0  0  0  0  0  0  0  0
   -0.5492   -1.1943   -2.2246 O   0  0  0  0  0  0  0  0  0  0  0  0
    1.2474   -0.1417   -0.2603 C   0  0  0  0  0  0  0  0  0  0  0  0
    2.1851    0.8678   -0.5793 C   0  0  0  0  0  0  0  0  0  0  0  0
    3.5608    0.6169   -0.6476 C   0  0  0  0  0  0  0  0  0  0  0  0
    4.0504   -0.6577   -0.4090 C   0  0  0  0  0  0  0  0  0  0  0  0
    3.1607   -1.6831   -0.1115 C   0  0  0  0  0  0  0  0  0  0  0  0
    1.7794   -1.4385   -0.0418 C   0  0  0  0  0  0  0  0  0  0  0  0
    0.8101   -2.8351    0.3067 Cl  0  0  0  0  0  0  0  0  0  0  0  0
    0.4694    2.6997    0.6945 H   0  0  0  0  0  0  0  0  0  0  0  0
   -1.2853    2.6690    0.9650 H   0  0  0  0  0  0  0  0  0  0  0  0
   -0.6225    3.5802   -0.3754 H   0  0  0  0  0  0  0  0  0  0  0  0
   -0.1915    1.6739   -1.5899 H   0  0  0  0  0  0  0  0  0  0  0  0
   -0.3876   -0.9616    1.7129 H   0  0  0  0  0  0  0  0  0  0  0  0
   -0.3962    0.7440    1.9394 H   0  0  0  0  0  0  0  0  0  0  0  0
   -2.7673    0.8429    1.1342 H   0  0  0  0  0  0  0  0  0  0  0  0
   -2.5686   -0.3034    2.4535 H   0  0  0  0  0  0  0  0  0  0  0  0
   -3.9413   -1.2966    0.6652 H   0  0  0  0  0  0  0  0  0  0  0  0
   -2.4330   -2.1883    0.8545 H   0  0  0  0  0  0  0  0  0  0  0  0
   -2.8656   -1.8521   -1.5173 H   0  0  0  0  0  0  0  0  0  0  0  0
   -3.0699   -0.1063   -1.3006 H   0  0  0  0  0  0  0  0  0  0  0  0
    1.8739    1.8842   -0.7990 H   0  0  0  0  0  0  0  0  0  0  0  0
    4.2462    1.4237   -0.8973 H   0  0  0  0  0  0  0  0  0  0  0  0
    5.1168   -0.8573   -0.4670 H   0  0  0  0  0  0  0  0  0  0  0  0
    3.5483   -2.6855    0.0573 H   0  0  0  0  0  0  0  0  0  0  0  0
  1  2  1  0
  2  3  1  0
  3  4  1  0
  4  5  1  0
  5  6  1  0
  6  7  1  0
  7  8  1  0
  8  9  2  0
  3 10  1  0
 10 11  2  0
 11 12  1  0
 12 13  2  0
 13 14  1  0
 14 15  2  0
 15 16  1  0
  8  3  1  0
 15 10  1  0
  1 17  1  0
  1 18  1  0
  1 19  1  0
  2 20  1  0
  4 21  1  0
  4 22  1  0
  5 23  1  0
  5 24  1  0
  6 25  1  0
  6 26  1  0
  7 27  1  0
  7 28  1  0
 11 29  1  0
 12 30  1  0
 13 31  1  0
 14 32  1  0
M  END
