
     RDKit          3D

 23 24  0  0  0  0  0  0  0  0999 V2000
    4.6142   -0.1274   -0.3536 N   0  0  0  0  0  0  0  0  0  0  0  0
    3.2312   -0.1136   -0.3339 C   0  0  0  0  0  0  0  0  0  0  0  0
    2.5596   -0.8481   -1.2414 N   0  0  0  0  0  0  0  0  0  0  0  0
    1.1984   -0.8630   -1.2245 N   0  0  0  0  0  0  0  0  0  0  0  0
    0.5527   -0.1453   -0.2817 C   0  0  0  0  0  0  0  0  0  0  0  0
   -0.9125   -0.1682   -0.3627 C   0  0  0  0  0  0  0  0  0  0  0  0
   -1.5301    0.3923   -1.5008 C   0  0  0  0  0  0  0  0  0  0  0  0
   -2.9174    0.4077   -1.6436 C   0  0  0  0  0  0  0  0  0  0  0  0
   -3.7195   -0.1439   -0.6505 C   0  0  0  0  0  0  0  0  0  0  0  0
   -3.1359   -0.7177    0.4820 C   0  0  0  0  0  0  0  0  0  0  0  0
   -4.2074   -1.3866    1.6659 Cl  0  0  0  0  0  0  0  0  0  0  0  0
   -1.7373   -0.7382    0.6305 C   0  0  0  0  0  0  0  0  0  0  0  0
   -1.0240   -1.4889    2.0300 Cl  0  0  0  0  0  0  0  0  0  0  0  0
    1.2975    0.5892    0.6436 C   0  0  0  0  0  0  0  0  0  0  0  0
    0.7104    1.3986    1.6257 N   0  0  0  0  0  0  0  0  0  0  0  0
    2.6425    0.6078    0.6261 N   0  0  0  0  0  0  0  0  0  0  0  0
    4.9770    0.1067    0.5600 H   0  0  0  0  0  0  0  0  0  0  0  0
    4.9579   -0.9726   -0.7883 H   0  0  0  0  0  0  0  0  0  0  0  0
   -0.9160    0.8263   -2.2910 H   0  0  0  0  0  0  0  0  0  0  0  0
   -3.3686    0.8486   -2.5298 H   0  0  0  0  0  0  0  0  0  0  0  0
   -4.8010   -0.1294   -0.7662 H   0  0  0  0  0  0  0  0  0  0  0  0
    1.4652    1.7942    2.1822 H   0  0  0  0  0  0  0  0  0  0  0  0
    0.0630    0.8715    2.2050 H   0  0  0  0  0  0  0  0  0  0  0  0
  1  2  1  0
  2  3  1  0
  3  4  2  0
  4  5  1  0
  5  6  1  0
  6  7  2  0
  7  8  1  0
  8  9  2  0
  9 10  1  0
 10 11  1  0
 10 12  2  0
 12 13  1  0
  5 14  2  0
 14 15  1  0
 14 16  1  0
 16  2  2  0
 12  6  1  0
  1 17  1  0
  1 18  1  0
  7 19  1  0
  8 20  1  0
  9 21  1  0
 15 22  1  0
 15 23  1  0
M  END
