
     RDKit          3D

 32 34  0  0  0  0  0  0  0  0999 V2000
    3.4669    0.9762    2.2846 N   0  0  0  0  0  0  0  0  0  0  0  0
    3.2660    0.3727    1.0414 C   0  0  0  0  0  0  0  0  0  0  0  0
    4.3616    0.0728    0.2160 C   0  0  0  0  0  0  0  0  0  0  0  0
    4.1926   -0.4394   -1.0860 C   0  0  0  0  0  0  0  0  0  0  0  0
    2.9164   -0.6206   -1.6121 C   0  0  0  0  0  0  0  0  0  0  0  0
    1.8514   -0.2551   -0.8129 C   0  0  0  0  0  0  0  0  0  0  0  0
    2.0064    0.2495    0.4800 C   0  0  0  0  0  0  0  0  0  0  0  0
    0.6656    0.5668    1.0514 C   0  0  0  0  0  0  0  0  0  0  0  0
   -0.2420    0.2803   -0.0509 N   0  0  0  0  0  0  0  0  0  0  0  0
   -1.6871    0.2484    0.1448 C   0  0  0  0  0  0  0  0  0  0  0  0
   -2.4847    0.7162   -1.0722 C   0  0  0  0  0  0  0  0  0  0  0  0
   -3.9681    0.7004   -0.7384 C   0  0  0  0  0  0  0  0  0  0  0  0
   -4.4131   -0.6704   -0.2851 C   0  0  0  0  0  0  0  0  0  0  0  0
   -5.5834   -1.0348   -0.3560 O   0  0  0  0  0  0  0  0  0  0  0  0
   -3.4591   -1.4679    0.2951 N   0  0  0  0  0  0  0  0  0  0  0  0
   -2.1558   -1.1438    0.5957 C   0  0  0  0  0  0  0  0  0  0  0  0
   -1.4707   -1.9021    1.2813 O   0  0  0  0  0  0  0  0  0  0  0  0
    0.4187   -0.2962   -1.1238 C   0  0  0  0  0  0  0  0  0  0  0  0
   -0.0557   -0.7713   -2.1371 O   0  0  0  0  0  0  0  0  0  0  0  0
    2.7141    0.8331    2.9499 H   0  0  0  0  0  0  0  0  0  0  0  0
    4.3726    0.7691    2.6972 H   0  0  0  0  0  0  0  0  0  0  0  0
    5.3743    0.2283    0.5825 H   0  0  0  0  0  0  0  0  0  0  0  0
    5.0663   -0.6825   -1.6862 H   0  0  0  0  0  0  0  0  0  0  0  0
    2.7588   -1.0086   -2.6125 H   0  0  0  0  0  0  0  0  0  0  0  0
    0.5692    1.6216    1.3238 H   0  0  0  0  0  0  0  0  0  0  0  0
    0.4342   -0.0844    1.8991 H   0  0  0  0  0  0  0  0  0  0  0  0
   -1.9025    0.9319    0.9774 H   0  0  0  0  0  0  0  0  0  0  0  0
   -2.3168    0.0616   -1.9345 H   0  0  0  0  0  0  0  0  0  0  0  0
   -2.1761    1.7259   -1.3661 H   0  0  0  0  0  0  0  0  0  0  0  0
   -4.5448    0.9750   -1.6282 H   0  0  0  0  0  0  0  0  0  0  0  0
   -4.1989    1.4167    0.0577 H   0  0  0  0  0  0  0  0  0  0  0  0
   -3.7762   -2.3694    0.6240 H   0  0  0  0  0  0  0  0  0  0  0  0
  1  2  1  0
  2  3  2  0
  3  4  1  0
  4  5  2  0
  5  6  1  0
  6  7  2  0
  7  8  1  0
  8  9  1  0
  9 10  1  0
 10 11  1  0
 11 12  1  0
 12 13  1  0
 13 14  2  0
 13 15  1  0
 15 16  1  0
 16 17  2  0
  9 18  1  0
 18 19  2  0
  7  2  1  0
 16 10  1  0
 18  6  1  0
  1 20  1  0
  1 21  1  0
  3 22  1  0
  4 23  1  0
  5 24  1  0
  8 25  1  0
  8 26  1  0
 10 27  1  0
 11 28  1  0
 11 29  1  0
 12 30  1  0
 12 31  1  0
 15 32  1  0
M  END
