
     RDKit          3D

 35 36  0  0  0  0  0  0  0  0999 V2000
   -4.6288   -0.2910   -1.2781 N   0  0  0  0  0  0  0  0  0  0  0  0
   -4.5385   -0.4918    0.1874 C   0  0  1  0  0  0  0  0  0  0  0  0
   -3.2879   -1.2717    0.6367 C   0  0  0  0  0  0  0  0  0  0  0  0
   -1.9601   -0.6240    0.3034 C   0  0  0  0  0  0  0  0  0  0  0  0
   -1.3090   -0.9087   -0.9046 C   0  0  0  0  0  0  0  0  0  0  0  0
   -0.0896   -0.2960   -1.2182 C   0  0  0  0  0  0  0  0  0  0  0  0
    0.7690   -0.7503   -3.0771 I   0  0  0  0  0  0  0  0  0  0  0  0
    0.5081    0.5928   -0.3136 C   0  0  0  0  0  0  0  0  0  0  0  0
    1.6923    1.2136   -0.6311 O   0  0  0  0  0  0  0  0  0  0  0  0
    2.8743    0.6063   -0.2514 C   0  0  0  0  0  0  0  0  0  0  0  0
    4.0297    1.3007   -0.6209 C   0  0  0  0  0  0  0  0  0  0  0  0
    5.2888    0.7915   -0.2962 C   0  0  0  0  0  0  0  0  0  0  0  0
    6.9784    1.8772   -0.8774 I   0  0  0  0  0  0  0  0  0  0  0  0
    5.4031   -0.4159    0.4007 C   0  0  0  0  0  0  0  0  0  0  0  0
    6.6298   -0.9300    0.7270 O   0  0  0  0  0  0  0  0  0  0  0  0
    4.2460   -1.1089    0.7698 C   0  0  0  0  0  0  0  0  0  0  0  0
    4.3297   -2.9227    1.8143 I   0  0  0  0  0  0  0  0  0  0  0  0
    2.9827   -0.6005    0.4456 C   0  0  0  0  0  0  0  0  0  0  0  0
   -0.1545    0.9029    0.8822 C   0  0  0  0  0  0  0  0  0  0  0  0
    0.6021    2.2959    2.2548 I   0  0  0  0  0  0  0  0  0  0  0  0
   -1.3727    0.2872    1.1932 C   0  0  0  0  0  0  0  0  0  0  0  0
   -4.6334    0.8378    0.9429 C   0  0  0  0  0  0  0  0  0  0  0  0
   -4.8550    0.9637    2.1380 O   0  0  0  0  0  0  0  0  0  0  0  0
   -4.3739    1.9253    0.1831 O   0  0  0  0  0  0  0  0  0  0  0  0
   -4.0581    0.5257   -1.5151 H   0  0  0  0  0  0  0  0  0  0  0  0
   -4.2259   -1.0851   -1.7683 H   0  0  0  0  0  0  0  0  0  0  0  0
   -5.4281   -1.0670    0.4703 H   0  0  0  0  0  0  0  0  0  0  0  0
   -3.3094   -2.2771    0.1947 H   0  0  0  0  0  0  0  0  0  0  0  0
   -3.3301   -1.4353    1.7222 H   0  0  0  0  0  0  0  0  0  0  0  0
   -1.7603   -1.6097   -1.6043 H   0  0  0  0  0  0  0  0  0  0  0  0
    3.9305    2.2387   -1.1626 H   0  0  0  0  0  0  0  0  0  0  0  0
    7.3113   -0.3189    0.3947 H   0  0  0  0  0  0  0  0  0  0  0  0
    2.0975   -1.1546    0.7425 H   0  0  0  0  0  0  0  0  0  0  0  0
   -1.8755    0.5202    2.1314 H   0  0  0  0  0  0  0  0  0  0  0  0
   -4.4827    2.6799    0.7982 H   0  0  0  0  0  0  0  0  0  0  0  0
  1  2  1  0
  2  3  1  0
  3  4  1  0
  4  5  1  0
  5  6  2  0
  6  7  1  0
  6  8  1  0
  8  9  1  0
  9 10  1  0
 10 11  1  0
 11 12  2  0
 12 13  1  0
 12 14  1  0
 14 15  1  0
 14 16  2  0
 16 17  1  0
 16 18  1  0
  8 19  2  0
 19 20  1  0
 19 21  1  0
  2 22  1  0
 22 23  2  0
 22 24  1  0
 21  4  2  0
 18 10  2  0
  1 25  1  0
  1 26  1  0
  2 27  1  1
  3 28  1  0
  3 29  1  0
  5 30  1  0
 11 31  1  0
 15 32  1  0
 18 33  1  0
 21 34  1  0
 24 35  1  0
M  END
