
     RDKit          3D

 25 25  0  0  0  0  0  0  0  0999 V2000
   -3.0404   -1.8667   -0.0230 N   0  0  0  0  0  0  0  0  0  0  0  0
   -1.8846   -0.9862    0.2850 C   0  0  0  0  0  0  0  0  0  0  0  0
   -0.9384   -0.8749   -0.9217 C   0  0  0  0  0  0  0  0  0  0  0  0
    0.3462   -0.1351   -0.6232 C   0  0  0  0  0  0  0  0  0  0  0  0
    0.5614    1.1489   -1.1541 C   0  0  0  0  0  0  0  0  0  0  0  0
    1.7443    1.8407   -0.8857 C   0  0  0  0  0  0  0  0  0  0  0  0
    2.7087    1.2485   -0.0862 C   0  0  0  0  0  0  0  0  0  0  0  0
    3.8658    1.9247    0.1754 O   0  0  0  0  0  0  0  0  0  0  0  0
    2.5087   -0.0207    0.4489 C   0  0  0  0  0  0  0  0  0  0  0  0
    3.5015   -0.5428    1.2319 O   0  0  0  0  0  0  0  0  0  0  0  0
    1.3349   -0.7199    0.1858 C   0  0  0  0  0  0  0  0  0  0  0  0
   -2.3965    0.3982    0.6912 C   0  0  0  0  0  0  0  0  0  0  0  0
   -2.0412    1.0531    1.6577 O   0  0  0  0  0  0  0  0  0  0  0  0
   -3.3265    0.8909   -0.1613 O   0  0  0  0  0  0  0  0  0  0  0  0
   -2.7183   -2.7082   -0.4968 H   0  0  0  0  0  0  0  0  0  0  0  0
   -3.6420   -1.3718   -0.6869 H   0  0  0  0  0  0  0  0  0  0  0  0
   -1.3689   -1.4165    1.1507 H   0  0  0  0  0  0  0  0  0  0  0  0
   -0.6665   -1.8781   -1.2775 H   0  0  0  0  0  0  0  0  0  0  0  0
   -1.4521   -0.3920   -1.7639 H   0  0  0  0  0  0  0  0  0  0  0  0
   -0.1912    1.6223   -1.7813 H   0  0  0  0  0  0  0  0  0  0  0  0
    1.9106    2.8325   -1.2950 H   0  0  0  0  0  0  0  0  0  0  0  0
    4.3730    1.3223    0.7550 H   0  0  0  0  0  0  0  0  0  0  0  0
    3.2012   -1.4049    1.5667 H   0  0  0  0  0  0  0  0  0  0  0  0
    1.1803   -1.7124    0.5983 H   0  0  0  0  0  0  0  0  0  0  0  0
   -3.5701    1.7480    0.2484 H   0  0  0  0  0  0  0  0  0  0  0  0
  1  2  1  0
  2  3  1  0
  3  4  1  0
  4  5  1  0
  5  6  2  0
  6  7  1  0
  7  8  1  0
  7  9  2  0
  9 10  1  0
  9 11  1  0
  2 12  1  0
 12 13  2  0
 12 14  1  0
 11  4  2  0
  1 15  1  0
  1 16  1  0
  2 17  1  0
  3 18  1  0
  3 19  1  0
  5 20  1  0
  6 21  1  0
  8 22  1  0
 10 23  1  0
 11 24  1  0
 14 25  1  0
M  END
