
     RDKit          3D

 39 39  0  0  0  0  0  0  0  0999 V2000
    2.8507   -1.3851   -2.1236 C   0  0  0  0  0  0  0  0  0  0  0  0
    2.0687   -0.4880   -1.1685 C   0  0  0  0  0  0  0  0  0  0  0  0
    2.3881   -0.7010    0.2482 N   0  0  0  0  0  0  0  0  0  0  0  0
    3.8103   -0.5524    0.5899 C   0  0  0  0  0  0  0  0  0  0  0  0
    4.4247    0.8187    0.3228 C   0  0  0  0  0  0  0  0  0  0  0  0
    1.5345    0.1015    1.1510 C   0  0  0  0  0  0  0  0  0  0  0  0
    0.0709   -0.3728    1.1290 C   0  0  0  0  0  0  0  0  0  0  0  0
   -0.2715   -1.4370    1.6355 O   0  0  0  0  0  0  0  0  0  0  0  0
   -0.7592    0.5186    0.4580 N   0  0  0  0  0  0  0  0  0  0  0  0
   -2.1608    0.3885    0.2887 C   0  0  0  0  0  0  0  0  0  0  0  0
   -2.7026    0.7627   -0.9678 C   0  0  0  0  0  0  0  0  0  0  0  0
   -1.8458    1.2616   -2.1027 C   0  0  0  0  0  0  0  0  0  0  0  0
   -4.0829    0.6363   -1.1979 C   0  0  0  0  0  0  0  0  0  0  0  0
   -4.9268    0.1579   -0.2043 C   0  0  0  0  0  0  0  0  0  0  0  0
   -4.4053   -0.1688    1.0420 C   0  0  0  0  0  0  0  0  0  0  0  0
   -3.0315   -0.0290    1.3188 C   0  0  0  0  0  0  0  0  0  0  0  0
   -2.6070   -0.3011    2.7374 C   0  0  0  0  0  0  0  0  0  0  0  0
    2.4570   -1.2781   -3.1400 H   0  0  0  0  0  0  0  0  0  0  0  0
    3.9120   -1.1213   -2.1560 H   0  0  0  0  0  0  0  0  0  0  0  0
    2.7599   -2.4388   -1.8396 H   0  0  0  0  0  0  0  0  0  0  0  0
    2.2118    0.5610   -1.4543 H   0  0  0  0  0  0  0  0  0  0  0  0
    1.0104   -0.7170   -1.3371 H   0  0  0  0  0  0  0  0  0  0  0  0
    3.9477   -0.7951    1.6517 H   0  0  0  0  0  0  0  0  0  0  0  0
    4.3965   -1.3137    0.0622 H   0  0  0  0  0  0  0  0  0  0  0  0
    3.9177    1.6071    0.8872 H   0  0  0  0  0  0  0  0  0  0  0  0
    4.3951    1.0776   -0.7396 H   0  0  0  0  0  0  0  0  0  0  0  0
    5.4757    0.8182    0.6310 H   0  0  0  0  0  0  0  0  0  0  0  0
    1.8601   -0.0106    2.1933 H   0  0  0  0  0  0  0  0  0  0  0  0
    1.5935    1.1706    0.9138 H   0  0  0  0  0  0  0  0  0  0  0  0
   -0.2809    1.0745   -0.2359 H   0  0  0  0  0  0  0  0  0  0  0  0
   -2.4382    1.4551   -3.0035 H   0  0  0  0  0  0  0  0  0  0  0  0
   -1.0893    0.5154   -2.3657 H   0  0  0  0  0  0  0  0  0  0  0  0
   -1.3579    2.2015   -1.8256 H   0  0  0  0  0  0  0  0  0  0  0  0
   -4.5088    0.9000   -2.1636 H   0  0  0  0  0  0  0  0  0  0  0  0
   -5.9914    0.0514   -0.3943 H   0  0  0  0  0  0  0  0  0  0  0  0
   -5.0835   -0.5180    1.8187 H   0  0  0  0  0  0  0  0  0  0  0  0
   -2.4091   -1.3667    2.8822 H   0  0  0  0  0  0  0  0  0  0  0  0
   -1.7323    0.2904    3.0224 H   0  0  0  0  0  0  0  0  0  0  0  0
   -3.4003   -0.0097    3.4362 H   0  0  0  0  0  0  0  0  0  0  0  0
  1  2  1  0
  2  3  1  0
  3  4  1  0
  4  5  1  0
  3  6  1  0
  6  7  1  0
  7  8  2  0
  7  9  1  0
  9 10  1  0
 10 11  2  0
 11 12  1  0
 11 13  1  0
 13 14  2  0
 14 15  1  0
 15 16  2  0
 16 17  1  0
 16 10  1  0
  1 18  1  0
  1 19  1  0
  1 20  1  0
  2 21  1  0
  2 22  1  0
  4 23  1  0
  4 24  1  0
  5 25  1  0
  5 26  1  0
  5 27  1  0
  6 28  1  0
  6 29  1  0
  9 30  1  0
 12 31  1  0
 12 32  1  0
 12 33  1  0
 13 34  1  0
 14 35  1  0
 15 36  1  0
 17 37  1  0
 17 38  1  0
 17 39  1  0
M  END
