
     RDKit          3D

 60 61  0  0  0  0  0  0  0  0999 V2000
   -2.8522    4.2936   -3.0464 N   0  0  0  0  0  0  0  0  0  0  0  0
   -2.1143    3.5174   -2.0503 C   0  0  0  0  0  0  0  0  0  0  0  0
   -3.0801    2.6470   -1.2456 C   0  0  0  0  0  0  0  0  0  0  0  0
   -2.3745    1.8426   -0.1491 C   0  0  0  0  0  0  0  0  0  0  0  0
   -1.6584    0.5963   -0.6916 C   0  0  0  0  0  0  0  0  0  0  0  0
   -0.9098   -0.1656    0.4188 C   0  0  2  0  0  0  0  0  0  0  0  0
    0.5475   -0.0134    0.1682 N   0  0  0  0  0  0  0  0  0  0  0  0
    1.3327    0.2440    1.4021 C   0  0  1  0  0  0  0  0  0  0  0  0
    2.8231   -0.0639    1.1839 C   0  0  0  0  0  0  0  0  0  0  0  0
    3.4424    0.6765   -0.0145 C   0  0  0  0  0  0  0  0  0  0  0  0
    4.9100    0.3590   -0.1800 C   0  0  0  0  0  0  0  0  0  0  0  0
    5.3164   -0.7482   -0.9355 C   0  0  0  0  0  0  0  0  0  0  0  0
    6.6707   -1.0401   -1.0842 C   0  0  0  0  0  0  0  0  0  0  0  0
    7.6325   -0.2352   -0.4777 C   0  0  0  0  0  0  0  0  0  0  0  0
    7.2410    0.8607    0.2834 C   0  0  0  0  0  0  0  0  0  0  0  0
    5.8851    1.1567    0.4294 C   0  0  0  0  0  0  0  0  0  0  0  0
    1.1837    1.6864    1.9058 C   0  0  0  0  0  0  0  0  0  0  0  0
    1.3618    2.0660    3.0645 O   0  0  0  0  0  0  0  0  0  0  0  0
    0.8983    2.6086    0.9569 O   0  0  0  0  0  0  0  0  0  0  0  0
   -1.2538   -1.6851    0.3946 C   0  0  0  0  0  0  0  0  0  0  0  0
   -0.3729   -2.5345    0.1873 O   0  0  0  0  0  0  0  0  0  0  0  0
   -2.5627   -2.0574    0.6114 N   0  0  0  0  0  0  0  0  0  0  0  0
   -3.6105   -1.2683    1.2238 C   0  0  0  0  0  0  0  0  0  0  0  0
   -4.4727   -2.3007    1.9258 C   0  0  0  0  0  0  0  0  0  0  0  0
   -4.3868   -3.5093    1.0069 C   0  0  0  0  0  0  0  0  0  0  0  0
   -2.9499   -3.4701    0.4952 C   0  0  1  0  0  0  0  0  0  0  0  0
   -2.9174   -4.0415   -0.9241 C   0  0  0  0  0  0  0  0  0  0  0  0
   -3.1311   -5.2131   -1.2204 O   0  0  0  0  0  0  0  0  0  0  0  0
   -2.6991   -3.1317   -1.9067 O   0  0  0  0  0  0  0  0  0  0  0  0
   -3.5106    4.9197   -2.5722 H   0  0  0  0  0  0  0  0  0  0  0  0
   -2.1994    4.8896   -3.5569 H   0  0  0  0  0  0  0  0  0  0  0  0
   -1.3704    2.9060   -2.5607 H   0  0  0  0  0  0  0  0  0  0  0  0
   -1.5875    4.2006   -1.3855 H   0  0  0  0  0  0  0  0  0  0  0  0
   -3.6187    1.9675   -1.9110 H   0  0  0  0  0  0  0  0  0  0  0  0
   -3.8339    3.2889   -0.7726 H   0  0  0  0  0  0  0  0  0  0  0  0
   -1.6723    2.4854    0.3889 H   0  0  0  0  0  0  0  0  0  0  0  0
   -3.1288    1.5280    0.5823 H   0  0  0  0  0  0  0  0  0  0  0  0
   -2.3916   -0.0462   -1.1925 H   0  0  0  0  0  0  0  0  0  0  0  0
   -0.9613    0.9012   -1.4802 H   0  0  0  0  0  0  0  0  0  0  0  0
   -1.1718    0.2120    1.4118 H   0  0  0  0  0  0  0  0  0  0  0  0
    0.8636   -0.9111   -0.2358 H   0  0  0  0  0  0  0  0  0  0  0  0
    0.9704   -0.4139    2.2033 H   0  0  0  0  0  0  0  0  0  0  0  0
    3.3829    0.1921    2.1058 H   0  0  0  0  0  0  0  0  0  0  0  0
    2.9427   -1.1555    1.0431 H   0  0  0  0  0  0  0  0  0  0  0  0
    3.3315    1.7650    0.0963 H   0  0  0  0  0  0  0  0  0  0  0  0
    2.9157    0.4122   -0.9424 H   0  0  0  0  0  0  0  0  0  0  0  0
    4.5779   -1.3975   -1.4029 H   0  0  0  0  0  0  0  0  0  0  0  0
    6.9776   -1.9030   -1.6660 H   0  0  0  0  0  0  0  0  0  0  0  0
    8.6852   -0.4751   -0.5894 H   0  0  0  0  0  0  0  0  0  0  0  0
    7.9892    1.4836    0.7644 H   0  0  0  0  0  0  0  0  0  0  0  0
    5.5930    2.0107    1.0278 H   0  0  0  0  0  0  0  0  0  0  0  0
    0.8974    3.4515    1.4658 H   0  0  0  0  0  0  0  0  0  0  0  0
   -3.2142   -0.5238    1.9206 H   0  0  0  0  0  0  0  0  0  0  0  0
   -4.1677   -0.7726    0.4210 H   0  0  0  0  0  0  0  0  0  0  0  0
   -5.4944   -1.9624    2.0817 H   0  0  0  0  0  0  0  0  0  0  0  0
   -4.0368   -2.5502    2.8967 H   0  0  0  0  0  0  0  0  0  0  0  0
   -4.6174   -4.4440    1.5256 H   0  0  0  0  0  0  0  0  0  0  0  0
   -5.1097   -3.4023    0.1924 H   0  0  0  0  0  0  0  0  0  0  0  0
   -2.2753   -4.0563    1.1255 H   0  0  0  0  0  0  0  0  0  0  0  0
   -2.6642   -3.6771   -2.7172 H   0  0  0  0  0  0  0  0  0  0  0  0
  1  2  1  0
  2  3  1  0
  3  4  1  0
  4  5  1  0
  5  6  1  0
  6  7  1  0
  7  8  1  0
  8  9  1  0
  9 10  1  0
 10 11  1  0
 11 12  2  0
 12 13  1  0
 13 14  2  0
 14 15  1  0
 15 16  2  0
  8 17  1  0
 17 18  2  0
 17 19  1  0
  6 20  1  0
 20 21  2  0
 20 22  1  0
 22 23  1  0
 23 24  1  0
 24 25  1  0
 25 26  1  0
 26 27  1  0
 27 28  2  0
 27 29  1  0
 16 11  1  0
 26 22  1  0
  1 30  1  0
  1 31  1  0
  2 32  1  0
  2 33  1  0
  3 34  1  0
  3 35  1  0
  4 36  1  0
  4 37  1  0
  5 38  1  0
  5 39  1  0
  6 40  1  1
  7 41  1  0
  8 42  1  1
  9 43  1  0
  9 44  1  0
 10 45  1  0
 10 46  1  0
 12 47  1  0
 13 48  1  0
 14 49  1  0
 15 50  1  0
 16 51  1  0
 19 52  1  0
 23 53  1  0
 23 54  1  0
 24 55  1  0
 24 56  1  0
 25 57  1  0
 25 58  1  0
 26 59  1  1
 29 60  1  0
M  END
