
     RDKit          3D

 67 70  0  0  0  0  0  0  0  0999 V2000
   -2.3487    1.8691   -2.4770 C   0  0  0  0  0  0  0  0  0  0  0  0
   -2.8012    0.4863   -2.4980 N   0  0  0  0  0  0  0  0  0  0  0  0
   -3.4612    0.1010   -3.7383 C   0  0  0  0  0  0  0  0  0  0  0  0
   -3.2949   -0.1478   -1.3390 C   0  0  0  0  0  0  0  0  0  0  0  0
   -4.2988   -0.8668   -1.4367 O   0  0  0  0  0  0  0  0  0  0  0  0
   -2.5462    0.0464    0.0690 C   0  0  0  0  0  0  0  0  0  0  0  0
   -1.0206   -0.2582   -0.1913 C   0  0  0  0  0  0  0  0  0  0  0  0
   -0.1454   -0.5353    1.0518 C   0  0  0  0  0  0  0  0  0  0  0  0
    1.2909   -0.6687    0.7774 N   0  0  0  0  0  0  0  0  0  0  0  0
    1.9801    0.5595    0.3933 C   0  0  0  0  0  0  0  0  0  0  0  0
    2.7147    0.4460   -0.9408 C   0  0  0  0  0  0  0  0  0  0  0  0
    3.7091   -0.7351   -0.9646 C   0  0  0  0  0  0  0  0  0  0  0  0
    3.8067   -1.1374   -2.3470 O   0  0  0  0  0  0  0  0  0  0  0  0
    5.1453   -0.4202   -0.5289 C   0  0  0  0  0  0  0  0  0  0  0  0
    5.4968    0.7297    0.1975 C   0  0  0  0  0  0  0  0  0  0  0  0
    6.8193    0.9579    0.5977 C   0  0  0  0  0  0  0  0  0  0  0  0
    7.8116    0.0352    0.2828 C   0  0  0  0  0  0  0  0  0  0  0  0
    9.4327    0.3177    0.7836 Cl  0  0  0  0  0  0  0  0  0  0  0  0
    7.4955   -1.1125   -0.4343 C   0  0  0  0  0  0  0  0  0  0  0  0
    6.1749   -1.3358   -0.8356 C   0  0  0  0  0  0  0  0  0  0  0  0
    3.1796   -1.9335   -0.1440 C   0  0  0  0  0  0  0  0  0  0  0  0
    1.6628   -1.8682    0.0339 C   0  0  0  0  0  0  0  0  0  0  0  0
   -2.8896    1.4764    0.5714 C   0  0  0  0  0  0  0  0  0  0  0  0
   -1.9243    2.4143    0.9730 C   0  0  0  0  0  0  0  0  0  0  0  0
   -2.2948    3.6881    1.4162 C   0  0  0  0  0  0  0  0  0  0  0  0
   -3.6368    4.0513    1.4701 C   0  0  0  0  0  0  0  0  0  0  0  0
   -4.6134    3.1405    1.0845 C   0  0  0  0  0  0  0  0  0  0  0  0
   -4.2454    1.8685    0.6425 C   0  0  0  0  0  0  0  0  0  0  0  0
   -3.0338   -1.0440    1.0946 C   0  0  0  0  0  0  0  0  0  0  0  0
   -3.2652   -0.7418    2.4525 C   0  0  0  0  0  0  0  0  0  0  0  0
   -3.6403   -1.7333    3.3643 C   0  0  0  0  0  0  0  0  0  0  0  0
   -3.7789   -3.0525    2.9470 C   0  0  0  0  0  0  0  0  0  0  0  0
   -3.5329   -3.3845    1.6195 C   0  0  0  0  0  0  0  0  0  0  0  0
   -3.1560   -2.3948    0.7071 C   0  0  0  0  0  0  0  0  0  0  0  0
   -1.9080    2.1274   -3.4439 H   0  0  0  0  0  0  0  0  0  0  0  0
   -1.5919    2.0438   -1.7177 H   0  0  0  0  0  0  0  0  0  0  0  0
   -3.2072    2.5183   -2.2845 H   0  0  0  0  0  0  0  0  0  0  0  0
   -4.4329    0.5996   -3.8029 H   0  0  0  0  0  0  0  0  0  0  0  0
   -2.8384    0.3880   -4.5902 H   0  0  0  0  0  0  0  0  0  0  0  0
   -3.6098   -0.9831   -3.7701 H   0  0  0  0  0  0  0  0  0  0  0  0
   -0.5649    0.5502   -0.7680 H   0  0  0  0  0  0  0  0  0  0  0  0
   -0.9571   -1.1406   -0.8438 H   0  0  0  0  0  0  0  0  0  0  0  0
   -0.2784    0.2483    1.8063 H   0  0  0  0  0  0  0  0  0  0  0  0
   -0.4684   -1.4609    1.5431 H   0  0  0  0  0  0  0  0  0  0  0  0
    2.6920    0.7978    1.1901 H   0  0  0  0  0  0  0  0  0  0  0  0
    1.2975    1.4149    0.3464 H   0  0  0  0  0  0  0  0  0  0  0  0
    3.2095    1.3922   -1.1901 H   0  0  0  0  0  0  0  0  0  0  0  0
    1.9633    0.3161   -1.7335 H   0  0  0  0  0  0  0  0  0  0  0  0
    2.9375   -1.4719   -2.6214 H   0  0  0  0  0  0  0  0  0  0  0  0
    4.7578    1.4766    0.4717 H   0  0  0  0  0  0  0  0  0  0  0  0
    7.0631    1.8574    1.1570 H   0  0  0  0  0  0  0  0  0  0  0  0
    8.2652   -1.8379   -0.6853 H   0  0  0  0  0  0  0  0  0  0  0  0
    5.9456   -2.2367   -1.4034 H   0  0  0  0  0  0  0  0  0  0  0  0
    3.6359   -1.9537    0.8558 H   0  0  0  0  0  0  0  0  0  0  0  0
    3.4412   -2.8822   -0.6302 H   0  0  0  0  0  0  0  0  0  0  0  0
    1.1798   -1.9037   -0.9495 H   0  0  0  0  0  0  0  0  0  0  0  0
    1.3386   -2.7585    0.5856 H   0  0  0  0  0  0  0  0  0  0  0  0
   -0.8638    2.1895    0.9421 H   0  0  0  0  0  0  0  0  0  0  0  0
   -1.5302    4.3988    1.7200 H   0  0  0  0  0  0  0  0  0  0  0  0
   -3.9208    5.0417    1.8159 H   0  0  0  0  0  0  0  0  0  0  0  0
   -5.6641    3.4148    1.1294 H   0  0  0  0  0  0  0  0  0  0  0  0
   -5.0353    1.1720    0.3561 H   0  0  0  0  0  0  0  0  0  0  0  0
   -3.1475    0.2692    2.8341 H   0  0  0  0  0  0  0  0  0  0  0  0
   -3.8222   -1.4710    4.4040 H   0  0  0  0  0  0  0  0  0  0  0  0
   -4.0736   -3.8218    3.6554 H   0  0  0  0  0  0  0  0  0  0  0  0
   -3.6364   -4.4148    1.2889 H   0  0  0  0  0  0  0  0  0  0  0  0
   -2.9679   -2.6971   -0.3213 H   0  0  0  0  0  0  0  0  0  0  0  0
  1  2  1  0
  2  3  1  0
  2  4  1  0
  4  5  2  0
  4  6  1  0
  6  7  1  0
  7  8  1  0
  8  9  1  0
  9 10  1  0
 10 11  1  0
 11 12  1  0
 12 13  1  0
 12 14  1  0
 14 15  1  0
 15 16  2  0
 16 17  1  0
 17 18  1  0
 17 19  2  0
 19 20  1  0
 12 21  1  0
 21 22  1  0
  6 23  1  0
 23 24  2  0
 24 25  1  0
 25 26  2  0
 26 27  1  0
 27 28  2  0
  6 29  1  0
 29 30  2  0
 30 31  1  0
 31 32  2  0
 32 33  1  0
 33 34  2  0
 22  9  1  0
 28 23  1  0
 34 29  1  0
 20 14  2  0
  1 35  1  0
  1 36  1  0
  1 37  1  0
  3 38  1  0
  3 39  1  0
  3 40  1  0
  7 41  1  0
  7 42  1  0
  8 43  1  0
  8 44  1  0
 10 45  1  0
 10 46  1  0
 11 47  1  0
 11 48  1  0
 13 49  1  0
 15 50  1  0
 16 51  1  0
 19 52  1  0
 20 53  1  0
 21 54  1  0
 21 55  1  0
 22 56  1  0
 22 57  1  0
 24 58  1  0
 25 59  1  0
 26 60  1  0
 27 61  1  0
 28 62  1  0
 30 63  1  0
 31 64  1  0
 32 65  1  0
 33 66  1  0
 34 67  1  0
M  END
