
     RDKit          3D

 50 53  0  0  0  0  0  0  0  0999 V2000
    6.7212    0.5362   -1.2595 C   0  0  0  0  0  0  0  0  0  0  0  0
    5.8476    1.0224   -0.1184 C   0  0  0  0  0  0  0  0  0  0  0  0
    4.4617    0.8537   -0.4483 O   0  0  0  0  0  0  0  0  0  0  0  0
    3.9223   -0.3627   -0.1631 C   0  0  0  0  0  0  0  0  0  0  0  0
    4.5536   -1.2833    0.3425 O   0  0  0  0  0  0  0  0  0  0  0  0
    2.5853   -0.4423   -0.5103 N   0  0  0  0  0  0  0  0  0  0  0  0
    1.7837    0.7203   -0.8811 C   0  0  0  0  0  0  0  0  0  0  0  0
    0.8924    1.1550    0.2925 C   0  0  0  0  0  0  0  0  0  0  0  0
    0.0433   -0.0115    0.8045 C   0  0  0  0  0  0  0  0  0  0  0  0
   -1.3126    0.0077    0.9337 C   0  0  0  0  0  0  0  0  0  0  0  0
   -2.1124    1.2168    0.6017 C   0  0  0  0  0  0  0  0  0  0  0  0
   -1.8949    2.3845    1.3619 C   0  0  0  0  0  0  0  0  0  0  0  0
   -2.6146    3.5538    1.1167 C   0  0  0  0  0  0  0  0  0  0  0  0
   -3.5800    3.5622    0.1205 C   0  0  0  0  0  0  0  0  0  0  0  0
   -4.4759    4.9968   -0.1931 Cl  0  0  0  0  0  0  0  0  0  0  0  0
   -3.8408    2.4066   -0.6149 C   0  0  0  0  0  0  0  0  0  0  0  0
   -3.1252    1.2110   -0.3820 C   0  0  0  0  0  0  0  0  0  0  0  0
   -3.5785    0.0025   -1.1863 C   0  0  0  0  0  0  0  0  0  0  0  0
   -2.8033   -1.3186   -1.1081 C   0  0  0  0  0  0  0  0  0  0  0  0
   -2.7604   -1.8901    0.2831 C   0  0  0  0  0  0  0  0  0  0  0  0
   -3.4356   -3.0611    0.6297 C   0  0  0  0  0  0  0  0  0  0  0  0
   -3.3627   -3.5297    1.9382 C   0  0  0  0  0  0  0  0  0  0  0  0
   -2.6155   -2.8100    2.8574 C   0  0  0  0  0  0  0  0  0  0  0  0
   -1.9462   -1.6765    2.5606 N   0  0  0  0  0  0  0  0  0  0  0  0
   -2.0306   -1.2409    1.2817 C   0  0  0  0  0  0  0  0  0  0  0  0
    0.9180   -1.2336    1.1121 C   0  0  0  0  0  0  0  0  0  0  0  0
    1.8072   -1.5992   -0.0844 C   0  0  0  0  0  0  0  0  0  0  0  0
    6.4587    1.0499   -2.1902 H   0  0  0  0  0  0  0  0  0  0  0  0
    6.5786   -0.5345   -1.4358 H   0  0  0  0  0  0  0  0  0  0  0  0
    7.7779    0.7166   -1.0428 H   0  0  0  0  0  0  0  0  0  0  0  0
    6.0099    2.0941    0.0368 H   0  0  0  0  0  0  0  0  0  0  0  0
    6.0991    0.5212    0.8234 H   0  0  0  0  0  0  0  0  0  0  0  0
    2.4114    1.5572   -1.2004 H   0  0  0  0  0  0  0  0  0  0  0  0
    1.1654    0.4321   -1.7402 H   0  0  0  0  0  0  0  0  0  0  0  0
    0.2955    2.0033   -0.0501 H   0  0  0  0  0  0  0  0  0  0  0  0
    1.5183    1.5135    1.1195 H   0  0  0  0  0  0  0  0  0  0  0  0
   -1.1554    2.3817    2.1617 H   0  0  0  0  0  0  0  0  0  0  0  0
   -2.4207    4.4425    1.7104 H   0  0  0  0  0  0  0  0  0  0  0  0
   -4.6252    2.4270   -1.3697 H   0  0  0  0  0  0  0  0  0  0  0  0
   -4.6199   -0.1994   -0.8983 H   0  0  0  0  0  0  0  0  0  0  0  0
   -3.5939    0.3006   -2.2435 H   0  0  0  0  0  0  0  0  0  0  0  0
   -1.7819   -1.1926   -1.4894 H   0  0  0  0  0  0  0  0  0  0  0  0
   -3.2805   -2.0406   -1.7833 H   0  0  0  0  0  0  0  0  0  0  0  0
   -4.0191   -3.6076   -0.1062 H   0  0  0  0  0  0  0  0  0  0  0  0
   -3.8793   -4.4353    2.2369 H   0  0  0  0  0  0  0  0  0  0  0  0
   -2.5333   -3.1375    3.8899 H   0  0  0  0  0  0  0  0  0  0  0  0
    0.3445   -2.1216    1.3878 H   0  0  0  0  0  0  0  0  0  0  0  0
    1.5489   -0.9872    1.9761 H   0  0  0  0  0  0  0  0  0  0  0  0
    1.1920   -1.9176   -0.9348 H   0  0  0  0  0  0  0  0  0  0  0  0
    2.4619   -2.4359    0.1800 H   0  0  0  0  0  0  0  0  0  0  0  0
  1  2  1  0
  2  3  1  0
  3  4  1  0
  4  5  2  0
  4  6  1  0
  6  7  1  0
  7  8  1  0
  8  9  1  0
  9 10  2  3
 10 11  1  0
 11 12  1  0
 12 13  2  0
 13 14  1  0
 14 15  1  0
 14 16  2  0
 16 17  1  0
 17 18  1  0
 18 19  1  0
 19 20  1  0
 20 21  1  0
 21 22  2  0
 22 23  1  0
 23 24  2  0
 24 25  1  0
  9 26  1  0
 26 27  1  0
 27  6  1  0
 25 10  1  0
 17 11  2  0
 25 20  2  0
  1 28  1  0
  1 29  1  0
  1 30  1  0
  2 31  1  0
  2 32  1  0
  7 33  1  0
  7 34  1  0
  8 35  1  0
  8 36  1  0
 12 37  1  0
 13 38  1  0
 16 39  1  0
 18 40  1  0
 18 41  1  0
 19 42  1  0
 19 43  1  0
 21 44  1  0
 22 45  1  0
 23 46  1  0
 26 47  1  0
 26 48  1  0
 27 49  1  0
 27 50  1  0
M  END
