
     RDKit          3D

 53 56  0  0  0  0  0  0  0  0999 V2000
    5.8884    0.3298   -1.0112 C   0  0  0  0  0  0  0  0  0  0  0  0
    5.1223    1.6089   -1.3104 C   0  0  0  0  0  0  0  0  0  0  0  0
    3.6086    1.4130   -1.4528 C   0  0  0  0  0  0  0  0  0  0  0  0
    2.8204    1.4429   -0.1402 C   0  0  0  0  0  0  0  0  0  0  0  0
    2.9748    0.2189    0.7031 C   0  0  0  0  0  0  0  0  0  0  0  0
    3.7534    0.1453    1.7640 N   0  0  0  0  0  0  0  0  0  0  0  0
    3.6331   -1.1283    2.2453 C   0  0  0  0  0  0  0  0  0  0  0  0
    4.5051   -1.6646    3.6039 Cl  0  0  0  0  0  0  0  0  0  0  0  0
    2.7527   -1.8604    1.4773 C   0  0  0  0  0  0  0  0  0  0  0  0
    2.3210   -3.2683    1.5932 C   0  0  0  0  0  0  0  0  0  0  0  0
    2.8206   -3.9407    0.4480 O   0  0  0  0  0  0  0  0  0  0  0  0
    2.3008   -0.9732    0.5167 N   0  0  0  0  0  0  0  0  0  0  0  0
    1.3221   -1.2629   -0.5275 C   0  0  0  0  0  0  0  0  0  0  0  0
   -0.0095   -0.5782   -0.3071 C   0  0  0  0  0  0  0  0  0  0  0  0
   -0.6615    0.0315   -1.3892 C   0  0  0  0  0  0  0  0  0  0  0  0
   -1.9025    0.6521   -1.2185 C   0  0  0  0  0  0  0  0  0  0  0  0
   -2.5334    0.6637    0.0338 C   0  0  0  0  0  0  0  0  0  0  0  0
   -3.8495    1.2978    0.2072 C   0  0  0  0  0  0  0  0  0  0  0  0
   -3.9052    2.7081    0.1761 C   0  0  0  0  0  0  0  0  0  0  0  0
   -5.1031    3.3953    0.3691 C   0  0  0  0  0  0  0  0  0  0  0  0
   -6.2729    2.6866    0.6028 C   0  0  0  0  0  0  0  0  0  0  0  0
   -6.2430    1.2922    0.6357 C   0  0  0  0  0  0  0  0  0  0  0  0
   -5.0472    0.5736    0.4307 C   0  0  0  0  0  0  0  0  0  0  0  0
   -5.1405   -0.8913    0.4635 C   0  0  0  0  0  0  0  0  0  0  0  0
   -6.0753   -1.6141    1.0580 N   0  0  0  0  0  0  0  0  0  0  0  0
   -5.7831   -2.9308    0.8029 N   0  0  0  0  0  0  0  0  0  0  0  0
   -4.6982   -3.0369    0.0527 N   0  0  0  0  0  0  0  0  0  0  0  0
   -4.3042   -1.7758   -0.1648 N   0  0  0  0  0  0  0  0  0  0  0  0
   -1.8833    0.0494    1.1131 C   0  0  0  0  0  0  0  0  0  0  0  0
   -0.6436   -0.5739    0.9432 C   0  0  0  0  0  0  0  0  0  0  0  0
    5.6447   -0.4554   -1.7339 H   0  0  0  0  0  0  0  0  0  0  0  0
    5.6808   -0.0467   -0.0084 H   0  0  0  0  0  0  0  0  0  0  0  0
    6.9654    0.5182   -1.0708 H   0  0  0  0  0  0  0  0  0  0  0  0
    5.5012    2.0022   -2.2623 H   0  0  0  0  0  0  0  0  0  0  0  0
    5.3446    2.3662   -0.5499 H   0  0  0  0  0  0  0  0  0  0  0  0
    3.4006    0.5024   -2.0245 H   0  0  0  0  0  0  0  0  0  0  0  0
    3.2352    2.2471   -2.0617 H   0  0  0  0  0  0  0  0  0  0  0  0
    3.1264    2.3178    0.4471 H   0  0  0  0  0  0  0  0  0  0  0  0
    1.7608    1.6004   -0.3660 H   0  0  0  0  0  0  0  0  0  0  0  0
    1.2305   -3.3543    1.6059 H   0  0  0  0  0  0  0  0  0  0  0  0
    2.7080   -3.7615    2.4893 H   0  0  0  0  0  0  0  0  0  0  0  0
    3.7905   -3.9529    0.5374 H   0  0  0  0  0  0  0  0  0  0  0  0
    1.1563   -2.3415   -0.5874 H   0  0  0  0  0  0  0  0  0  0  0  0
    1.7747   -0.9574   -1.4759 H   0  0  0  0  0  0  0  0  0  0  0  0
   -0.2040    0.0375   -2.3775 H   0  0  0  0  0  0  0  0  0  0  0  0
   -2.3788    1.1276   -2.0752 H   0  0  0  0  0  0  0  0  0  0  0  0
   -2.9947    3.2847    0.0156 H   0  0  0  0  0  0  0  0  0  0  0  0
   -5.1182    4.4822    0.3472 H   0  0  0  0  0  0  0  0  0  0  0  0
   -7.2104    3.2135    0.7627 H   0  0  0  0  0  0  0  0  0  0  0  0
   -7.1747    0.7568    0.8205 H   0  0  0  0  0  0  0  0  0  0  0  0
   -3.4872   -1.6040   -0.7349 H   0  0  0  0  0  0  0  0  0  0  0  0
   -2.3414    0.0514    2.1021 H   0  0  0  0  0  0  0  0  0  0  0  0
   -0.1780   -1.0442    1.8077 H   0  0  0  0  0  0  0  0  0  0  0  0
  1  2  1  0
  2  3  1  0
  3  4  1  0
  4  5  1  0
  5  6  2  0
  6  7  1  0
  7  8  1  0
  7  9  2  0
  9 10  1  0
 10 11  1  0
  9 12  1  0
 12 13  1  0
 13 14  1  0
 14 15  1  0
 15 16  2  0
 16 17  1  0
 17 18  1  0
 18 19  2  0
 19 20  1  0
 20 21  2  0
 21 22  1  0
 22 23  2  0
 23 24  1  0
 24 25  2  0
 25 26  1  0
 26 27  2  0
 27 28  1  0
 17 29  2  0
 29 30  1  0
 12  5  1  0
 30 14  2  0
 23 18  1  0
 28 24  1  0
  1 31  1  0
  1 32  1  0
  1 33  1  0
  2 34  1  0
  2 35  1  0
  3 36  1  0
  3 37  1  0
  4 38  1  0
  4 39  1  0
 10 40  1  0
 10 41  1  0
 11 42  1  0
 13 43  1  0
 13 44  1  0
 15 45  1  0
 16 46  1  0
 19 47  1  0
 20 48  1  0
 21 49  1  0
 22 50  1  0
 28 51  1  0
 29 52  1  0
 30 53  1  0
M  END
