
     RDKit          3D

 36 37  0  0  0  0  0  0  0  0999 V2000
   -1.7553    3.9200   -0.6759 C   0  0  0  0  0  0  0  0  0  0  0  0
   -1.4602    2.5579   -0.9830 O   0  0  0  0  0  0  0  0  0  0  0  0
   -0.6260    1.9533   -0.0852 C   0  0  0  0  0  0  0  0  0  0  0  0
   -0.1558    2.5015    0.9063 O   0  0  0  0  0  0  0  0  0  0  0  0
   -0.3952    0.4954   -0.4750 C   0  0  0  0  0  0  0  0  0  0  0  0
    1.0243    0.0272   -0.0322 C   0  0  0  0  0  0  0  0  0  0  0  0
    1.2905   -1.4441   -0.4072 C   0  0  0  0  0  0  0  0  0  0  0  0
    2.6443   -1.9283    0.1166 C   0  0  0  0  0  0  0  0  0  0  0  0
    3.6575   -0.7960    0.2485 C   0  0  0  0  0  0  0  0  0  0  0  0
    3.3848    0.3012   -0.7696 C   0  0  0  0  0  0  0  0  0  0  0  0
    2.0598    0.9067   -0.6308 N   0  0  0  0  0  0  0  0  0  0  0  0
   -1.5232   -0.3666    0.0806 C   0  0  0  0  0  0  0  0  0  0  0  0
   -2.3754   -1.0542   -0.7973 C   0  0  0  0  0  0  0  0  0  0  0  0
   -3.4112   -1.8492   -0.3040 C   0  0  0  0  0  0  0  0  0  0  0  0
   -3.6102   -1.9640    1.0700 C   0  0  0  0  0  0  0  0  0  0  0  0
   -2.7755   -1.2826    1.9528 C   0  0  0  0  0  0  0  0  0  0  0  0
   -1.7384   -0.4873    1.4630 C   0  0  0  0  0  0  0  0  0  0  0  0
   -2.2665    3.9933    0.2891 H   0  0  0  0  0  0  0  0  0  0  0  0
   -2.4235    4.3052   -1.4511 H   0  0  0  0  0  0  0  0  0  0  0  0
   -0.8404    4.5207   -0.6778 H   0  0  0  0  0  0  0  0  0  0  0  0
   -0.4169    0.4532   -1.5741 H   0  0  0  0  0  0  0  0  0  0  0  0
    1.1068    0.1150    1.0602 H   0  0  0  0  0  0  0  0  0  0  0  0
    0.5152   -2.1099   -0.0130 H   0  0  0  0  0  0  0  0  0  0  0  0
    1.2632   -1.5545   -1.4997 H   0  0  0  0  0  0  0  0  0  0  0  0
    3.0294   -2.7018   -0.5587 H   0  0  0  0  0  0  0  0  0  0  0  0
    2.5189   -2.4080    1.0947 H   0  0  0  0  0  0  0  0  0  0  0  0
    4.6723   -1.1903    0.1232 H   0  0  0  0  0  0  0  0  0  0  0  0
    3.6099   -0.3756    1.2613 H   0  0  0  0  0  0  0  0  0  0  0  0
    4.1455    1.0853   -0.6840 H   0  0  0  0  0  0  0  0  0  0  0  0
    3.4777   -0.1074   -1.7831 H   0  0  0  0  0  0  0  0  0  0  0  0
    2.1326    1.7460   -0.0474 H   0  0  0  0  0  0  0  0  0  0  0  0
   -2.2387   -0.9766   -1.8741 H   0  0  0  0  0  0  0  0  0  0  0  0
   -4.0645   -2.3780   -0.9932 H   0  0  0  0  0  0  0  0  0  0  0  0
   -4.4180   -2.5821    1.4528 H   0  0  0  0  0  0  0  0  0  0  0  0
   -2.9336   -1.3676    3.0249 H   0  0  0  0  0  0  0  0  0  0  0  0
   -1.1044    0.0424    2.1722 H   0  0  0  0  0  0  0  0  0  0  0  0
  1  2  1  0
  2  3  1  0
  3  4  2  0
  3  5  1  0
  5  6  1  0
  6  7  1  0
  7  8  1  0
  8  9  1  0
  9 10  1  0
 10 11  1  0
  5 12  1  0
 12 13  2  0
 13 14  1  0
 14 15  2  0
 15 16  1  0
 16 17  2  0
 11  6  1  0
 17 12  1  0
  1 18  1  0
  1 19  1  0
  1 20  1  0
  5 21  1  0
  6 22  1  0
  7 23  1  0
  7 24  1  0
  8 25  1  0
  8 26  1  0
  9 27  1  0
  9 28  1  0
 10 29  1  0
 10 30  1  0
 11 31  1  0
 13 32  1  0
 14 33  1  0
 15 34  1  0
 16 35  1  0
 17 36  1  0
M  END
