
     RDKit          3D

 26 26  0  0  0  0  0  0  0  0999 V2000
   -3.5605   -0.4885   -1.0818 C   0  0  0  0  0  0  0  0  0  0  0  0
   -2.6037   -0.8199   -0.0358 N   0  0  0  0  0  0  0  0  0  0  0  0
   -1.3059   -0.1387   -0.2018 C   0  0  0  0  0  0  0  0  0  0  0  0
   -1.4015    1.3389    0.1983 C   0  0  0  0  0  0  0  0  0  0  0  0
   -0.2658   -0.8879    0.6667 C   0  0  0  0  0  0  0  0  0  0  0  0
    1.1601   -0.4353    0.4465 C   0  0  0  0  0  0  0  0  0  0  0  0
    1.8342   -0.7645   -0.7376 C   0  0  0  0  0  0  0  0  0  0  0  0
    3.1480   -0.3421   -0.9455 C   0  0  0  0  0  0  0  0  0  0  0  0
    3.8011    0.4115    0.0278 C   0  0  0  0  0  0  0  0  0  0  0  0
    3.1418    0.7416    1.2103 C   0  0  0  0  0  0  0  0  0  0  0  0
    1.8278    0.3198    1.4202 C   0  0  0  0  0  0  0  0  0  0  0  0
   -3.1636   -0.7260   -2.0740 H   0  0  0  0  0  0  0  0  0  0  0  0
   -3.8549    0.5644   -1.0551 H   0  0  0  0  0  0  0  0  0  0  0  0
   -4.4666   -1.0868   -0.9427 H   0  0  0  0  0  0  0  0  0  0  0  0
   -3.0005   -0.5927    0.8757 H   0  0  0  0  0  0  0  0  0  0  0  0
   -0.9952   -0.2041   -1.2523 H   0  0  0  0  0  0  0  0  0  0  0  0
   -2.1321    1.8762   -0.4145 H   0  0  0  0  0  0  0  0  0  0  0  0
   -1.6939    1.4505    1.2484 H   0  0  0  0  0  0  0  0  0  0  0  0
   -0.4423    1.8482    0.0605 H   0  0  0  0  0  0  0  0  0  0  0  0
   -0.5254   -0.7928    1.7299 H   0  0  0  0  0  0  0  0  0  0  0  0
   -0.3059   -1.9645    0.4488 H   0  0  0  0  0  0  0  0  0  0  0  0
    1.3385   -1.3566   -1.5040 H   0  0  0  0  0  0  0  0  0  0  0  0
    3.6624   -0.6033   -1.8665 H   0  0  0  0  0  0  0  0  0  0  0  0
    4.8244    0.7392   -0.1341 H   0  0  0  0  0  0  0  0  0  0  0  0
    3.6515    1.3273    1.9708 H   0  0  0  0  0  0  0  0  0  0  0  0
    1.3280    0.5863    2.3486 H   0  0  0  0  0  0  0  0  0  0  0  0
  1  2  1  0
  2  3  1  0
  3  4  1  0
  3  5  1  0
  5  6  1  0
  6  7  2  0
  7  8  1  0
  8  9  2  0
  9 10  1  0
 10 11  2  0
 11  6  1  0
  1 12  1  0
  1 13  1  0
  1 14  1  0
  2 15  1  0
  3 16  1  0
  4 17  1  0
  4 18  1  0
  4 19  1  0
  5 20  1  0
  5 21  1  0
  7 22  1  0
  8 23  1  0
  9 24  1  0
 10 25  1  0
 11 26  1  0
M  END
