
     RDKit          3D

 44 44  0  0  0  0  0  0  0  0999 V2000
    7.3833   -0.2686   -0.6870 C   0  0  0  0  0  0  0  0  0  0  0  0
    6.3171    0.5712   -0.2654 O   0  0  0  0  0  0  0  0  0  0  0  0
    5.9439    0.3666    1.1006 C   0  0  0  0  0  0  0  0  0  0  0  0
    4.9940   -0.8240    1.2840 C   0  0  0  0  0  0  0  0  0  0  0  0
    3.5632   -0.5168    0.9013 C   0  0  0  0  0  0  0  0  0  0  0  0
    3.2170   -0.2477   -0.4288 C   0  0  0  0  0  0  0  0  0  0  0  0
    1.8924    0.0334   -0.7838 C   0  0  0  0  0  0  0  0  0  0  0  0
    0.8931    0.0425    0.1876 C   0  0  0  0  0  0  0  0  0  0  0  0
   -0.4340    0.2950   -0.0218 O   0  0  0  0  0  0  0  0  0  0  0  0
   -0.8450    0.5551   -1.3669 C   0  0  0  0  0  0  0  0  0  0  0  0
   -2.3636    0.7757   -1.4265 C   0  0  0  0  0  0  0  0  0  0  0  0
   -2.7025    2.0526   -0.8647 O   0  0  0  0  0  0  0  0  0  0  0  0
   -3.1584   -0.3214   -0.6886 C   0  0  0  0  0  0  0  0  0  0  0  0
   -4.6016   -0.0110   -0.7738 N   0  0  0  0  0  0  0  0  0  0  0  0
   -5.4347   -1.0230   -0.1054 C   0  0  0  0  0  0  0  0  0  0  0  0
   -5.3426   -0.9223    1.4181 C   0  0  0  0  0  0  0  0  0  0  0  0
   -6.8876   -0.8174   -0.5440 C   0  0  0  0  0  0  0  0  0  0  0  0
    1.2328   -0.2268    1.5144 C   0  0  0  0  0  0  0  0  0  0  0  0
    2.5547   -0.5052    1.8718 C   0  0  0  0  0  0  0  0  0  0  0  0
    7.1060   -1.3236   -0.6189 H   0  0  0  0  0  0  0  0  0  0  0  0
    8.2808   -0.0757   -0.0916 H   0  0  0  0  0  0  0  0  0  0  0  0
    7.6062   -0.0381   -1.7323 H   0  0  0  0  0  0  0  0  0  0  0  0
    6.8474    0.2251    1.7060 H   0  0  0  0  0  0  0  0  0  0  0  0
    5.4660    1.2892    1.4490 H   0  0  0  0  0  0  0  0  0  0  0  0
    5.3228   -1.6934    0.7043 H   0  0  0  0  0  0  0  0  0  0  0  0
    5.0212   -1.1227    2.3393 H   0  0  0  0  0  0  0  0  0  0  0  0
    3.9824   -0.2450   -1.2026 H   0  0  0  0  0  0  0  0  0  0  0  0
    1.6821    0.2465   -1.8261 H   0  0  0  0  0  0  0  0  0  0  0  0
   -0.3383    1.4552   -1.7353 H   0  0  0  0  0  0  0  0  0  0  0  0
   -0.5943   -0.3068   -1.9971 H   0  0  0  0  0  0  0  0  0  0  0  0
   -2.6672    0.8123   -2.4796 H   0  0  0  0  0  0  0  0  0  0  0  0
   -3.6233    1.9488   -0.5475 H   0  0  0  0  0  0  0  0  0  0  0  0
   -2.8585   -0.3352    0.3637 H   0  0  0  0  0  0  0  0  0  0  0  0
   -2.9450   -1.2995   -1.1338 H   0  0  0  0  0  0  0  0  0  0  0  0
   -4.8641    0.0333   -1.7603 H   0  0  0  0  0  0  0  0  0  0  0  0
   -5.1309   -2.0281   -0.4232 H   0  0  0  0  0  0  0  0  0  0  0  0
   -4.3417   -1.1738    1.7819 H   0  0  0  0  0  0  0  0  0  0  0  0
   -6.0419   -1.6192    1.8933 H   0  0  0  0  0  0  0  0  0  0  0  0
   -5.5882    0.0868    1.7677 H   0  0  0  0  0  0  0  0  0  0  0  0
   -7.5411   -1.5643   -0.0801 H   0  0  0  0  0  0  0  0  0  0  0  0
   -7.2570    0.1749   -0.2613 H   0  0  0  0  0  0  0  0  0  0  0  0
   -6.9901   -0.9208   -1.6302 H   0  0  0  0  0  0  0  0  0  0  0  0
    0.4599   -0.2161    2.2790 H   0  0  0  0  0  0  0  0  0  0  0  0
    2.7849   -0.7093    2.9146 H   0  0  0  0  0  0  0  0  0  0  0  0
  1  2  1  0
  2  3  1  0
  3  4  1  0
  4  5  1  0
  5  6  1  0
  6  7  2  0
  7  8  1  0
  8  9  1  0
  9 10  1  0
 10 11  1  0
 11 12  1  0
 11 13  1  0
 13 14  1  0
 14 15  1  0
 15 16  1  0
 15 17  1  0
  8 18  2  0
 18 19  1  0
 19  5  2  0
  1 20  1  0
  1 21  1  0
  1 22  1  0
  3 23  1  0
  3 24  1  0
  4 25  1  0
  4 26  1  0
  6 27  1  0
  7 28  1  0
 10 29  1  0
 10 30  1  0
 11 31  1  0
 12 32  1  0
 13 33  1  0
 13 34  1  0
 14 35  1  0
 15 36  1  0
 16 37  1  0
 16 38  1  0
 16 39  1  0
 17 40  1  0
 17 41  1  0
 17 42  1  0
 18 43  1  0
 19 44  1  0
M  END
