
     RDKit          3D

 21 21  0  0  0  0  0  0  0  0999 V2000
   -1.1476   -2.1629    0.9093 C   0  0  0  0  0  0  0  0  0  0  0  0
   -1.1554   -0.6777    0.8397 C   0  0  0  0  0  0  0  0  0  0  0  0
   -1.7933    0.1119    1.6836 N   0  0  0  0  0  0  0  0  0  0  0  0
   -1.5364    1.3933    1.2729 C   0  0  0  0  0  0  0  0  0  0  0  0
   -0.7511    1.3793    0.1506 C   0  0  0  0  0  0  0  0  0  0  0  0
   -0.2805    2.4938   -0.5912 N   0  0  0  0  0  0  0  0  0  0  0  0
   -0.1881    2.3656   -1.8172 O   0  0  0  0  0  0  0  0  0  0  0  0
   -0.0636    3.5289    0.0501 O   0  0  0  0  0  0  0  0  0  0  0  0
   -0.4763    0.0629   -0.1165 N   0  0  0  0  0  0  0  0  0  0  0  0
    0.4144   -0.4927   -1.1239 C   0  0  0  0  0  0  0  0  0  0  0  0
    1.8631   -0.5423   -0.6454 C   0  0  0  0  0  0  0  0  0  0  0  0
    2.3848    0.7742   -0.5184 O   0  0  0  0  0  0  0  0  0  0  0  0
   -1.7078   -2.5065    1.7847 H   0  0  0  0  0  0  0  0  0  0  0  0
   -1.6167   -2.5935    0.0196 H   0  0  0  0  0  0  0  0  0  0  0  0
   -0.1260   -2.5452    0.9936 H   0  0  0  0  0  0  0  0  0  0  0  0
   -1.9392    2.2490    1.8002 H   0  0  0  0  0  0  0  0  0  0  0  0
    0.3163    0.0908   -2.0410 H   0  0  0  0  0  0  0  0  0  0  0  0
    0.0646   -1.5031   -1.3590 H   0  0  0  0  0  0  0  0  0  0  0  0
    1.9480   -1.0444    0.3238 H   0  0  0  0  0  0  0  0  0  0  0  0
    2.4755   -1.0805   -1.3756 H   0  0  0  0  0  0  0  0  0  0  0  0
    3.3151    0.6992   -0.2398 H   0  0  0  0  0  0  0  0  0  0  0  0
  1  2  1  0
  2  3  2  0
  3  4  1  0
  4  5  2  0
  5  6  1  0
  6  7  2  0
  6  8  1  0
  5  9  1  0
  9 10  1  0
 10 11  1  0
 11 12  1  0
  9  2  1  0
  1 13  1  0
  1 14  1  0
  1 15  1  0
  4 16  1  0
 10 17  1  0
 10 18  1  0
 11 19  1  0
 11 20  1  0
 12 21  1  0
M  CHG  2   6   1   8  -1
M  END
