
     RDKit          3D

 30 31  0  0  0  0  0  0  0  0999 V2000
    3.4967   -0.6860   -2.3182 N   0  0  0  0  0  0  0  0  0  0  0  0
    2.7254   -0.3042   -1.1909 C   0  0  0  0  0  0  0  0  0  0  0  0
    1.3517   -0.5142   -1.1587 C   0  0  0  0  0  0  0  0  0  0  0  0
    0.6226   -0.1191   -0.0440 C   0  0  0  0  0  0  0  0  0  0  0  0
   -0.7512   -0.3444    0.0243 N   0  0  0  0  0  0  0  0  0  0  0  0
   -1.5571   -0.1342   -1.1862 C   0  0  0  0  0  0  0  0  0  0  0  0
   -2.8397    0.6384   -0.8837 C   0  0  0  0  0  0  0  0  0  0  0  0
   -3.6676   -0.0194    0.2163 C   0  0  0  0  0  0  0  0  0  0  0  0
   -2.8052   -0.6360    1.3166 C   0  0  0  0  0  0  0  0  0  0  0  0
   -1.3846   -0.0765    1.3202 C   0  0  0  0  0  0  0  0  0  0  0  0
    1.2400    0.4495    1.0151 N   0  0  0  0  0  0  0  0  0  0  0  0
    2.5738    0.6954    0.9871 C   0  0  0  0  0  0  0  0  0  0  0  0
    3.1709    1.3024    2.0968 N   0  0  0  0  0  0  0  0  0  0  0  0
    3.3537    0.3122   -0.1071 N   0  0  0  0  0  0  0  0  0  0  0  0
    4.6378    0.4588   -0.1091 O   0  0  0  0  0  0  0  0  0  0  0  0
    3.3992   -1.6725   -2.5374 H   0  0  0  0  0  0  0  0  0  0  0  0
    4.4718   -0.4527   -2.0828 H   0  0  0  0  0  0  0  0  0  0  0  0
    0.8686   -1.0008   -1.9979 H   0  0  0  0  0  0  0  0  0  0  0  0
   -1.8063   -1.1126   -1.6139 H   0  0  0  0  0  0  0  0  0  0  0  0
   -1.0097    0.4291   -1.9520 H   0  0  0  0  0  0  0  0  0  0  0  0
   -2.5779    1.6580   -0.5717 H   0  0  0  0  0  0  0  0  0  0  0  0
   -3.4439    0.7381   -1.7926 H   0  0  0  0  0  0  0  0  0  0  0  0
   -4.3077   -0.7994   -0.2135 H   0  0  0  0  0  0  0  0  0  0  0  0
   -4.3440    0.7286    0.6470 H   0  0  0  0  0  0  0  0  0  0  0  0
   -2.7613   -1.7224    1.1641 H   0  0  0  0  0  0  0  0  0  0  0  0
   -3.2784   -0.4776    2.2922 H   0  0  0  0  0  0  0  0  0  0  0  0
   -0.8320   -0.5718    2.1287 H   0  0  0  0  0  0  0  0  0  0  0  0
   -1.4008    1.0005    1.5311 H   0  0  0  0  0  0  0  0  0  0  0  0
    4.1777    1.1462    2.0684 H   0  0  0  0  0  0  0  0  0  0  0  0
    2.6774    1.0864    2.9518 H   0  0  0  0  0  0  0  0  0  0  0  0
  1  2  1  0
  2  3  2  0
  3  4  1  0
  4  5  1  0
  5  6  1  0
  6  7  1  0
  7  8  1  0
  8  9  1  0
  9 10  1  0
  4 11  2  0
 11 12  1  0
 12 13  1  0
 12 14  2  0
 14 15  1  0
 14  2  1  0
 10  5  1  0
  1 16  1  0
  1 17  1  0
  3 18  1  0
  6 19  1  0
  6 20  1  0
  7 21  1  0
  7 22  1  0
  8 23  1  0
  8 24  1  0
  9 25  1  0
  9 26  1  0
 10 27  1  0
 10 28  1  0
 13 29  1  0
 13 30  1  0
M  CHG  2  14   1  15  -1
M  END
