
     RDKit          3D

 34 35  0  0  0  0  0  0  0  0999 V2000
    3.9465   -0.8404    2.2594 N   0  0  0  0  0  0  0  0  0  0  0  0
    4.0098   -0.1652    1.0724 C   0  0  0  0  0  0  0  0  0  0  0  0
    5.0426    0.3900    0.7118 O   0  0  0  0  0  0  0  0  0  0  0  0
    2.7546   -0.1930    0.2364 C   0  0  0  0  0  0  0  0  0  0  0  0
    1.4438    0.7564    1.0559 S   0  0  0  0  0  0  0  0  0  0  0  0
    1.0101   -0.0210    2.2682 O   0  0  0  0  0  0  0  0  0  0  0  0
    0.1864    0.6099   -0.2917 C   0  0  0  0  0  0  0  0  0  0  0  0
   -1.0336    1.4959   -0.0578 C   0  0  0  0  0  0  0  0  0  0  0  0
   -1.7324    1.5126    1.1605 C   0  0  0  0  0  0  0  0  0  0  0  0
   -2.8568    2.3237    1.3308 C   0  0  0  0  0  0  0  0  0  0  0  0
   -3.3074    3.1239    0.2844 C   0  0  0  0  0  0  0  0  0  0  0  0
   -2.6370    3.1114   -0.9354 C   0  0  0  0  0  0  0  0  0  0  0  0
   -1.5121    2.3017   -1.1074 C   0  0  0  0  0  0  0  0  0  0  0  0
   -0.1750   -0.8162   -0.6851 C   0  0  0  0  0  0  0  0  0  0  0  0
   -0.7012   -1.7365    0.2351 C   0  0  0  0  0  0  0  0  0  0  0  0
   -1.0244   -3.0369   -0.1579 C   0  0  0  0  0  0  0  0  0  0  0  0
   -0.8348   -3.4361   -1.4781 C   0  0  0  0  0  0  0  0  0  0  0  0
   -0.3257   -2.5344   -2.4087 C   0  0  0  0  0  0  0  0  0  0  0  0
   -0.0014   -1.2338   -2.0174 C   0  0  0  0  0  0  0  0  0  0  0  0
    4.7367   -0.7203    2.8801 H   0  0  0  0  0  0  0  0  0  0  0  0
    3.0370   -0.9520    2.7052 H   0  0  0  0  0  0  0  0  0  0  0  0
    2.9676    0.2568   -0.7377 H   0  0  0  0  0  0  0  0  0  0  0  0
    2.4457   -1.2321    0.0958 H   0  0  0  0  0  0  0  0  0  0  0  0
    0.7271    1.0584   -1.1371 H   0  0  0  0  0  0  0  0  0  0  0  0
   -1.4109    0.8938    1.9963 H   0  0  0  0  0  0  0  0  0  0  0  0
   -3.3819    2.3264    2.2827 H   0  0  0  0  0  0  0  0  0  0  0  0
   -4.1837    3.7523    0.4189 H   0  0  0  0  0  0  0  0  0  0  0  0
   -2.9930    3.7294   -1.7558 H   0  0  0  0  0  0  0  0  0  0  0  0
   -1.0143    2.3033   -2.0748 H   0  0  0  0  0  0  0  0  0  0  0  0
   -0.8637   -1.4526    1.2732 H   0  0  0  0  0  0  0  0  0  0  0  0
   -1.4279   -3.7367    0.5697 H   0  0  0  0  0  0  0  0  0  0  0  0
   -1.0900   -4.4479   -1.7820 H   0  0  0  0  0  0  0  0  0  0  0  0
   -0.1861   -2.8432   -3.4416 H   0  0  0  0  0  0  0  0  0  0  0  0
    0.3853   -0.5477   -2.7683 H   0  0  0  0  0  0  0  0  0  0  0  0
  1  2  1  0
  2  3  2  0
  2  4  1  0
  4  5  1  0
  5  6  2  0
  5  7  1  0
  7  8  1  0
  8  9  2  0
  9 10  1  0
 10 11  2  0
 11 12  1  0
 12 13  2  0
  7 14  1  0
 14 15  2  0
 15 16  1  0
 16 17  2  0
 17 18  1  0
 18 19  2  0
 13  8  1  0
 19 14  1  0
  1 20  1  0
  1 21  1  0
  4 22  1  0
  4 23  1  0
  7 24  1  0
  9 25  1  0
 10 26  1  0
 11 27  1  0
 12 28  1  0
 13 29  1  0
 15 30  1  0
 16 31  1  0
 17 32  1  0
 18 33  1  0
 19 34  1  0
M  END
