
     RDKit          3D

 40 44  0  0  0  0  0  0  0  0999 V2000
   -3.5980   -1.5825    0.8307 C   0  0  0  0  0  0  0  0  0  0  0  0
   -2.2462   -1.0299    0.8240 N   0  0  0  0  0  0  0  0  0  0  0  0
   -2.1251    0.0982    1.7456 C   0  0  0  0  0  0  0  0  0  0  0  0
   -0.7105    0.7009    1.7639 C   0  0  0  0  0  0  0  0  0  0  0  0
   -0.0958    0.8366    0.3482 C   0  0  2  0  0  0  0  0  0  0  0  0
    0.9148   -0.2532    0.1434 C   0  0  0  0  0  0  0  0  0  0  0  0
    0.6759   -1.5244   -0.3520 C   0  0  0  0  0  0  0  0  0  0  0  0
    1.7677   -2.3915   -0.4462 C   0  0  0  0  0  0  0  0  0  0  0  0
    3.0587   -1.9569   -0.0806 C   0  0  0  0  0  0  0  0  0  0  0  0
    3.2703   -0.6396    0.3384 C   0  0  0  0  0  0  0  0  0  0  0  0
    4.5166   -0.1718    0.6210 O   0  0  0  0  0  0  0  0  0  0  0  0
    2.1848    0.2042    0.4235 C   0  0  0  0  0  0  0  0  0  0  0  0
    2.2067    1.5505    0.6906 O   0  0  0  0  0  0  0  0  0  0  0  0
    0.8886    2.0206    0.2343 C   0  0  1  0  0  0  0  0  0  0  0  0
    1.0048    2.6444   -1.1905 C   0  0  1  0  0  0  0  0  0  0  0  0
    2.3615    2.8327   -1.5915 O   0  0  0  0  0  0  0  0  0  0  0  0
    0.2994    1.9186   -2.2999 C   0  0  0  0  0  0  0  0  0  0  0  0
   -0.6983    1.0430   -2.1032 C   0  0  0  0  0  0  0  0  0  0  0  0
   -1.1884    0.6966   -0.7186 C   0  0  1  0  0  0  0  0  0  0  0  0
   -1.7628   -0.7554   -0.5573 C   0  0  1  0  0  0  0  0  0  0  0  0
   -0.6952   -1.8486   -0.8863 C   0  0  0  0  0  0  0  0  0  0  0  0
   -3.6483   -2.4881    0.2161 H   0  0  0  0  0  0  0  0  0  0  0  0
   -3.8914   -1.8760    1.8446 H   0  0  0  0  0  0  0  0  0  0  0  0
   -4.3345   -0.8648    0.4522 H   0  0  0  0  0  0  0  0  0  0  0  0
   -2.3673   -0.2254    2.7657 H   0  0  0  0  0  0  0  0  0  0  0  0
   -2.8513    0.8822    1.4927 H   0  0  0  0  0  0  0  0  0  0  0  0
   -0.0710    0.0979    2.4223 H   0  0  0  0  0  0  0  0  0  0  0  0
   -0.7918    1.6880    2.2362 H   0  0  0  0  0  0  0  0  0  0  0  0
    1.6321   -3.4007   -0.8283 H   0  0  0  0  0  0  0  0  0  0  0  0
    3.8884   -2.6517   -0.1715 H   0  0  0  0  0  0  0  0  0  0  0  0
    5.1511   -0.8988    0.5204 H   0  0  0  0  0  0  0  0  0  0  0  0
    0.6040    2.8292    0.9190 H   0  0  0  0  0  0  0  0  0  0  0  0
    0.5601    3.6467   -1.1527 H   0  0  0  0  0  0  0  0  0  0  0  0
    2.9082    2.3251   -0.9588 H   0  0  0  0  0  0  0  0  0  0  0  0
    0.6030    2.1678   -3.3141 H   0  0  0  0  0  0  0  0  0  0  0  0
   -1.1976    0.5966   -2.9594 H   0  0  0  0  0  0  0  0  0  0  0  0
   -1.9991    1.4126   -0.5210 H   0  0  0  0  0  0  0  0  0  0  0  0
   -2.5904   -0.8707   -1.2708 H   0  0  0  0  0  0  0  0  0  0  0  0
   -1.0184   -2.8294   -0.5155 H   0  0  0  0  0  0  0  0  0  0  0  0
   -0.6152   -1.9329   -1.9780 H   0  0  0  0  0  0  0  0  0  0  0  0
  1  2  1  0
  2  3  1  0
  3  4  1  0
  5  4  1  1
  5  6  1  0
  6  7  2  0
  7  8  1  0
  8  9  2  0
  9 10  1  0
 10 11  1  0
 10 12  2  0
 12 13  1  0
 13 14  1  0
 14 15  1  0
 15 16  1  0
 15 17  1  0
 17 18  2  0
 18 19  1  0
 19 20  1  0
 20 21  1  0
 20  2  1  0
 14  5  1  0
 19  5  1  0
 12  6  1  0
 21  7  1  0
  1 22  1  0
  1 23  1  0
  1 24  1  0
  3 25  1  0
  3 26  1  0
  4 27  1  0
  4 28  1  0
  8 29  1  0
  9 30  1  0
 11 31  1  0
 14 32  1  1
 15 33  1  1
 16 34  1  0
 17 35  1  0
 18 36  1  0
 19 37  1  1
 20 38  1  6
 21 39  1  0
 21 40  1  0
M  END
