
     RDKit          3D

 45 49  0  0  0  0  0  0  0  0999 V2000
    5.1006    1.3587    0.7569 C   0  0  0  0  0  0  0  0  0  0  0  0
    4.1324    0.6981    0.1069 C   0  0  0  0  0  0  0  0  0  0  0  0
    3.2810   -0.3806    0.7163 C   0  0  0  0  0  0  0  0  0  0  0  0
    1.8651   -0.0007    0.7791 N   0  0  0  0  0  0  0  0  0  0  0  0
    1.1635   -0.7351    1.8216 C   0  0  0  0  0  0  0  0  0  0  0  0
   -0.3622   -0.5986    1.7996 C   0  0  0  0  0  0  0  0  0  0  0  0
   -1.0061   -0.5897    0.3836 C   0  0  0  0  0  0  0  0  0  0  0  0
   -2.3448   -1.3449    0.3694 C   0  0  0  0  0  0  0  0  0  0  0  0
   -3.4353   -0.3920    0.3981 O   0  0  0  0  0  0  0  0  0  0  0  0
   -2.8683    0.8341    0.1704 C   0  0  0  0  0  0  0  0  0  0  0  0
   -3.5153    2.0302   -0.0484 C   0  0  0  0  0  0  0  0  0  0  0  0
   -4.8700    2.0989    0.0570 O   0  0  0  0  0  0  0  0  0  0  0  0
   -2.7519    3.1523   -0.4001 C   0  0  0  0  0  0  0  0  0  0  0  0
   -1.3545    3.0486   -0.5747 C   0  0  0  0  0  0  0  0  0  0  0  0
   -0.7096    1.8324   -0.3531 C   0  0  0  0  0  0  0  0  0  0  0  0
    0.7306    1.5531   -0.7325 C   0  0  0  0  0  0  0  0  0  0  0  0
    1.1971    0.0472   -0.5369 C   0  0  0  0  0  0  0  0  0  0  0  0
   -0.0133   -0.9275   -0.7401 C   0  0  0  0  0  0  0  0  0  0  0  0
   -0.5333   -0.7314   -2.0763 O   0  0  0  0  0  0  0  0  0  0  0  0
    0.2250   -2.4400   -0.7176 C   0  0  0  0  0  0  0  0  0  0  0  0
   -1.0923   -3.2015   -0.9844 C   0  0  0  0  0  0  0  0  0  0  0  0
   -2.3698   -2.3846   -0.7618 C   0  0  0  0  0  0  0  0  0  0  0  0
   -3.3939   -2.6483   -1.3945 O   0  0  0  0  0  0  0  0  0  0  0  0
   -1.4968    0.7798    0.0897 C   0  0  0  0  0  0  0  0  0  0  0  0
    5.3252    1.1619    1.8005 H   0  0  0  0  0  0  0  0  0  0  0  0
    5.6838    2.1243    0.2545 H   0  0  0  0  0  0  0  0  0  0  0  0
    3.9567    0.9398   -0.9379 H   0  0  0  0  0  0  0  0  0  0  0  0
    3.6554   -0.5816    1.7293 H   0  0  0  0  0  0  0  0  0  0  0  0
    3.4083   -1.3136    0.1529 H   0  0  0  0  0  0  0  0  0  0  0  0
    1.4287   -1.7977    1.7929 H   0  0  0  0  0  0  0  0  0  0  0  0
    1.5147   -0.3835    2.8007 H   0  0  0  0  0  0  0  0  0  0  0  0
   -0.7530   -1.4349    2.3930 H   0  0  0  0  0  0  0  0  0  0  0  0
   -0.6384    0.3073    2.3572 H   0  0  0  0  0  0  0  0  0  0  0  0
   -2.4660   -1.9500    1.2772 H   0  0  0  0  0  0  0  0  0  0  0  0
   -5.1609    2.9947   -0.1733 H   0  0  0  0  0  0  0  0  0  0  0  0
   -3.2303    4.1103   -0.5845 H   0  0  0  0  0  0  0  0  0  0  0  0
   -0.7926    3.9147   -0.9175 H   0  0  0  0  0  0  0  0  0  0  0  0
    1.3915    2.2459   -0.1969 H   0  0  0  0  0  0  0  0  0  0  0  0
    0.8343    1.7865   -1.8010 H   0  0  0  0  0  0  0  0  0  0  0  0
    1.9174   -0.1538   -1.3411 H   0  0  0  0  0  0  0  0  0  0  0  0
   -1.0005    0.1206   -2.1472 H   0  0  0  0  0  0  0  0  0  0  0  0
    0.6389   -2.7983    0.2253 H   0  0  0  0  0  0  0  0  0  0  0  0
    0.9510   -2.7222   -1.4908 H   0  0  0  0  0  0  0  0  0  0  0  0
   -1.1416   -4.0938   -0.3513 H   0  0  0  0  0  0  0  0  0  0  0  0
   -1.1003   -3.5351   -2.0293 H   0  0  0  0  0  0  0  0  0  0  0  0
  1  2  2  0
  2  3  1  0
  3  4  1  0
  4  5  1  0
  5  6  1  0
  6  7  1  0
  7  8  1  0
  8  9  1  0
  9 10  1  0
 10 11  2  0
 11 12  1  0
 11 13  1  0
 13 14  2  0
 14 15  1  0
 15 16  1  0
 16 17  1  0
 17 18  1  0
 18 19  1  0
 18 20  1  0
 20 21  1  0
 21 22  1  0
 22 23  2  0
 15 24  2  0
 17  4  1  0
 18  7  1  0
 24  7  1  0
 22  8  1  0
 24 10  1  0
  1 25  1  0
  1 26  1  0
  2 27  1  0
  3 28  1  0
  3 29  1  0
  5 30  1  0
  5 31  1  0
  6 32  1  0
  6 33  1  0
  8 34  1  0
 12 35  1  0
 13 36  1  0
 14 37  1  0
 16 38  1  0
 16 39  1  0
 17 40  1  0
 19 41  1  0
 20 42  1  0
 20 43  1  0
 21 44  1  0
 21 45  1  0
M  END
