
     RDKit          3D

 31 32  0  0  0  0  0  0  0  0999 V2000
   -5.3127   -0.2940    0.5156 C   0  0  0  0  0  0  0  0  0  0  0  0
   -4.5606   -0.8818   -0.5381 O   0  0  0  0  0  0  0  0  0  0  0  0
   -3.2054   -0.6976   -0.5104 C   0  0  0  0  0  0  0  0  0  0  0  0
   -2.5164   -1.2940   -1.5660 C   0  0  0  0  0  0  0  0  0  0  0  0
   -1.1276   -1.1852   -1.6615 C   0  0  0  0  0  0  0  0  0  0  0  0
   -0.4003   -0.4743   -0.6969 C   0  0  0  0  0  0  0  0  0  0  0  0
    0.9979   -0.3543   -0.7763 C   0  0  0  0  0  0  0  0  0  0  0  0
    1.7266    0.3586    0.1904 C   0  0  0  0  0  0  0  0  0  0  0  0
    3.2368    0.4883    0.1054 C   0  0  0  0  0  0  0  0  0  0  0  0
    3.9333   -0.8689    0.2263 C   0  0  0  0  0  0  0  0  0  0  0  0
    3.6714    1.1930   -1.1664 C   0  0  0  0  0  0  0  0  0  0  0  0
    3.9772    0.6734   -2.2281 O   0  0  0  0  0  0  0  0  0  0  0  0
    3.6807    2.5371   -1.0418 O   0  0  0  0  0  0  0  0  0  0  0  0
    1.0305    0.9578    1.2465 C   0  0  0  0  0  0  0  0  0  0  0  0
   -0.3595    0.8457    1.3374 C   0  0  0  0  0  0  0  0  0  0  0  0
   -1.0902    0.1329    0.3747 C   0  0  0  0  0  0  0  0  0  0  0  0
   -2.4909    0.0135    0.4558 C   0  0  0  0  0  0  0  0  0  0  0  0
   -5.0279   -0.7140    1.4859 H   0  0  0  0  0  0  0  0  0  0  0  0
   -5.2133    0.7964    0.5111 H   0  0  0  0  0  0  0  0  0  0  0  0
   -6.3673   -0.5324    0.3468 H   0  0  0  0  0  0  0  0  0  0  0  0
   -3.0654   -1.8491   -2.3226 H   0  0  0  0  0  0  0  0  0  0  0  0
   -0.6197   -1.6613   -2.4971 H   0  0  0  0  0  0  0  0  0  0  0  0
    1.5245   -0.8216   -1.6081 H   0  0  0  0  0  0  0  0  0  0  0  0
    3.6011    1.0978    0.9437 H   0  0  0  0  0  0  0  0  0  0  0  0
    5.0220   -0.7460    0.2080 H   0  0  0  0  0  0  0  0  0  0  0  0
    3.6697   -1.5430   -0.5963 H   0  0  0  0  0  0  0  0  0  0  0  0
    3.6636   -1.3655    1.1649 H   0  0  0  0  0  0  0  0  0  0  0  0
    3.9308    2.8559   -1.9342 H   0  0  0  0  0  0  0  0  0  0  0  0
    1.5625    1.5212    2.0105 H   0  0  0  0  0  0  0  0  0  0  0  0
   -0.8691    1.3239    2.1711 H   0  0  0  0  0  0  0  0  0  0  0  0
   -3.0022    0.4877    1.2871 H   0  0  0  0  0  0  0  0  0  0  0  0
  1  2  1  0
  2  3  1  0
  3  4  1  0
  4  5  2  0
  5  6  1  0
  6  7  2  0
  7  8  1  0
  8  9  1  0
  9 10  1  0
  9 11  1  0
 11 12  2  0
 11 13  1  0
  8 14  2  0
 14 15  1  0
 15 16  2  0
 16 17  1  0
 17  3  2  0
 16  6  1  0
  1 18  1  0
  1 19  1  0
  1 20  1  0
  4 21  1  0
  5 22  1  0
  7 23  1  0
  9 24  1  0
 10 25  1  0
 10 26  1  0
 10 27  1  0
 13 28  1  0
 14 29  1  0
 15 30  1  0
 17 31  1  0
M  END
