
     RDKit          3D

 42 45  0  0  0  0  0  0  0  0999 V2000
    6.3729   -1.2331    0.3876 C   0  0  0  0  0  0  0  0  0  0  0  0
    4.8835   -1.0732    0.3294 C   0  0  0  0  0  0  0  0  0  0  0  0
    4.3004    0.1993    0.3751 C   0  0  0  0  0  0  0  0  0  0  0  0
    2.9017    0.3914    0.2769 C   0  0  0  0  0  0  0  0  0  0  0  0
    2.4377    1.7282    0.3071 N   0  0  0  0  0  0  0  0  0  0  0  0
    1.3581    2.1381   -0.3996 C   0  0  0  0  0  0  0  0  0  0  0  0
    1.3742    3.7201   -1.0733 S   0  0  0  0  0  0  0  0  0  0  0  0
   -0.1281    3.4914   -1.8385 C   0  0  0  0  0  0  0  0  0  0  0  0
   -0.6562    2.2568   -1.5485 C   0  0  0  0  0  0  0  0  0  0  0  0
    0.1839    1.4674   -0.6757 C   0  0  0  0  0  0  0  0  0  0  0  0
   -0.1638    0.1547   -0.1410 C   0  0  0  0  0  0  0  0  0  0  0  0
    0.6686   -0.7761    0.1991 N   0  0  0  0  0  0  0  0  0  0  0  0
    2.0692   -0.7378    0.1594 C   0  0  0  0  0  0  0  0  0  0  0  0
    2.6721   -2.0073    0.1021 C   0  0  0  0  0  0  0  0  0  0  0  0
    4.0555   -2.1794    0.1705 C   0  0  0  0  0  0  0  0  0  0  0  0
   -1.5387   -0.0341   -0.0495 N   0  0  0  0  0  0  0  0  0  0  0  0
   -2.0620   -1.4095   -0.1984 C   0  0  0  0  0  0  0  0  0  0  0  0
   -3.5324   -1.5552    0.2655 C   0  0  0  0  0  0  0  0  0  0  0  0
   -4.3537   -0.3863   -0.0782 N   0  0  0  0  0  0  0  0  0  0  0  0
   -5.7536   -0.5742    0.2799 C   0  0  0  0  0  0  0  0  0  0  0  0
   -3.7946    0.8447    0.5194 C   0  0  0  0  0  0  0  0  0  0  0  0
   -2.2999    0.7713    0.9181 C   0  0  0  0  0  0  0  0  0  0  0  0
    6.7975   -1.1538   -0.6178 H   0  0  0  0  0  0  0  0  0  0  0  0
    6.6464   -2.2055    0.8108 H   0  0  0  0  0  0  0  0  0  0  0  0
    6.8228   -0.4644    1.0247 H   0  0  0  0  0  0  0  0  0  0  0  0
    4.9525    1.0648    0.4751 H   0  0  0  0  0  0  0  0  0  0  0  0
    3.1975    2.3992    0.3495 H   0  0  0  0  0  0  0  0  0  0  0  0
   -0.5585    4.2688   -2.4543 H   0  0  0  0  0  0  0  0  0  0  0  0
   -1.6140    1.9189   -1.9270 H   0  0  0  0  0  0  0  0  0  0  0  0
    2.0343   -2.8847    0.0168 H   0  0  0  0  0  0  0  0  0  0  0  0
    4.4702   -3.1827    0.1156 H   0  0  0  0  0  0  0  0  0  0  0  0
   -1.9920   -1.6798   -1.2589 H   0  0  0  0  0  0  0  0  0  0  0  0
   -1.4577   -2.1267    0.3696 H   0  0  0  0  0  0  0  0  0  0  0  0
   -3.9450   -2.4606   -0.1963 H   0  0  0  0  0  0  0  0  0  0  0  0
   -3.5515   -1.7192    1.3517 H   0  0  0  0  0  0  0  0  0  0  0  0
   -6.3483    0.2935   -0.0265 H   0  0  0  0  0  0  0  0  0  0  0  0
   -6.1709   -1.4427   -0.2414 H   0  0  0  0  0  0  0  0  0  0  0  0
   -5.8880   -0.7232    1.3572 H   0  0  0  0  0  0  0  0  0  0  0  0
   -4.3549    1.1467    1.4139 H   0  0  0  0  0  0  0  0  0  0  0  0
   -3.9225    1.6475   -0.2170 H   0  0  0  0  0  0  0  0  0  0  0  0
   -2.2026    0.3149    1.9118 H   0  0  0  0  0  0  0  0  0  0  0  0
   -1.9100    1.7917    1.0035 H   0  0  0  0  0  0  0  0  0  0  0  0
  1  2  1  0
  2  3  2  0
  3  4  1  0
  4  5  1  0
  5  6  1  0
  6  7  1  0
  7  8  1  0
  8  9  2  0
  9 10  1  0
 10 11  1  0
 11 12  2  0
 12 13  1  0
 13 14  1  0
 14 15  2  0
 11 16  1  0
 16 17  1  0
 17 18  1  0
 18 19  1  0
 19 20  1  0
 19 21  1  0
 21 22  1  0
 15  2  1  0
 22 16  1  0
 13  4  2  0
 10  6  2  0
  1 23  1  0
  1 24  1  0
  1 25  1  0
  3 26  1  0
  5 27  1  0
  8 28  1  0
  9 29  1  0
 14 30  1  0
 15 31  1  0
 17 32  1  0
 17 33  1  0
 18 34  1  0
 18 35  1  0
 20 36  1  0
 20 37  1  0
 20 38  1  0
 21 39  1  0
 21 40  1  0
 22 41  1  0
 22 42  1  0
M  END
