
     RDKit          3D

 43 45  0  0  0  0  0  0  0  0999 V2000
    8.1296    0.1720    1.5195 C   0  0  0  0  0  0  0  0  0  0  0  0
    6.8098    0.5199    1.9174 O   0  0  0  0  0  0  0  0  0  0  0  0
    5.8284    0.4380    0.9648 C   0  0  0  0  0  0  0  0  0  0  0  0
    6.0113    0.0343   -0.3624 C   0  0  0  0  0  0  0  0  0  0  0  0
    4.9404   -0.0183   -1.2677 C   0  0  0  0  0  0  0  0  0  0  0  0
    3.6877    0.3516   -0.7796 C   0  0  0  0  0  0  0  0  0  0  0  0
    2.4498    0.4199   -1.3615 N   0  0  0  0  0  0  0  0  0  0  0  0
    1.5598    0.8470   -0.4142 C   0  0  0  0  0  0  0  0  0  0  0  0
   -0.1959    1.0692   -0.7561 S   0  0  0  0  0  0  0  0  0  0  0  0
   -0.4567    0.2168   -1.9680 O   0  0  0  0  0  0  0  0  0  0  0  0
   -0.8079    0.2181    0.7292 C   0  0  0  0  0  0  0  0  0  0  0  0
   -2.3148    0.2264    0.7802 C   0  0  0  0  0  0  0  0  0  0  0  0
   -2.8526    1.3066    1.4104 N   0  0  0  0  0  0  0  0  0  0  0  0
   -4.1969    1.3980    1.4908 C   0  0  0  0  0  0  0  0  0  0  0  0
   -5.0719    0.4731    0.9506 C   0  0  0  0  0  0  0  0  0  0  0  0
   -6.5509    0.6599    1.0750 C   0  0  0  0  0  0  0  0  0  0  0  0
   -4.5007   -0.5968    0.2580 C   0  0  0  0  0  0  0  0  0  0  0  0
   -5.3335   -1.5252   -0.3208 O   0  0  0  0  0  0  0  0  0  0  0  0
   -5.5774   -1.1842   -1.6879 C   0  0  0  0  0  0  0  0  0  0  0  0
   -3.1077   -0.7764    0.2048 C   0  0  0  0  0  0  0  0  0  0  0  0
   -2.5150   -1.9746   -0.4816 C   0  0  0  0  0  0  0  0  0  0  0  0
    2.1450    1.0574    0.7438 N   0  0  0  0  0  0  0  0  0  0  0  0
    3.4703    0.7564    0.5333 C   0  0  0  0  0  0  0  0  0  0  0  0
    4.5533    0.8020    1.4214 C   0  0  0  0  0  0  0  0  0  0  0  0
    8.1842   -0.8760    1.2071 H   0  0  0  0  0  0  0  0  0  0  0  0
    8.7838    0.2946    2.3881 H   0  0  0  0  0  0  0  0  0  0  0  0
    8.4936    0.8400    0.7319 H   0  0  0  0  0  0  0  0  0  0  0  0
    6.9909   -0.2518   -0.7341 H   0  0  0  0  0  0  0  0  0  0  0  0
    5.0886   -0.3320   -2.2955 H   0  0  0  0  0  0  0  0  0  0  0  0
    2.2044    0.1847   -2.3131 H   0  0  0  0  0  0  0  0  0  0  0  0
   -0.4254    0.7564    1.6043 H   0  0  0  0  0  0  0  0  0  0  0  0
   -0.3967   -0.7935    0.7715 H   0  0  0  0  0  0  0  0  0  0  0  0
   -4.5579    2.2739    2.0236 H   0  0  0  0  0  0  0  0  0  0  0  0
   -6.7966    1.3071    1.9239 H   0  0  0  0  0  0  0  0  0  0  0  0
   -6.9524    1.1178    0.1660 H   0  0  0  0  0  0  0  0  0  0  0  0
   -7.0543   -0.2969    1.2482 H   0  0  0  0  0  0  0  0  0  0  0  0
   -6.2573   -1.9347   -2.1019 H   0  0  0  0  0  0  0  0  0  0  0  0
   -4.6542   -1.2033   -2.2765 H   0  0  0  0  0  0  0  0  0  0  0  0
   -6.0603   -0.2052   -1.7758 H   0  0  0  0  0  0  0  0  0  0  0  0
   -3.2324   -2.7988   -0.5517 H   0  0  0  0  0  0  0  0  0  0  0  0
   -1.6637   -2.3748    0.0759 H   0  0  0  0  0  0  0  0  0  0  0  0
   -2.1974   -1.7145   -1.4947 H   0  0  0  0  0  0  0  0  0  0  0  0
    4.3997    1.1160    2.4480 H   0  0  0  0  0  0  0  0  0  0  0  0
  1  2  1  0
  2  3  1  0
  3  4  2  0
  4  5  1  0
  5  6  2  0
  6  7  1  0
  7  8  1  0
  8  9  1  0
  9 10  2  0
  9 11  1  0
 11 12  1  0
 12 13  1  0
 13 14  2  0
 14 15  1  0
 15 16  1  0
 15 17  2  0
 17 18  1  0
 18 19  1  0
 17 20  1  0
 20 21  1  0
  8 22  2  0
 22 23  1  0
 23 24  2  0
 24  3  1  0
 23  6  1  0
 20 12  2  0
  1 25  1  0
  1 26  1  0
  1 27  1  0
  4 28  1  0
  5 29  1  0
  7 30  1  0
 11 31  1  0
 11 32  1  0
 14 33  1  0
 16 34  1  0
 16 35  1  0
 16 36  1  0
 19 37  1  0
 19 38  1  0
 19 39  1  0
 21 40  1  0
 21 41  1  0
 21 42  1  0
 24 43  1  0
M  END
