
     RDKit          3D

 41 44  0  0  0  0  0  0  0  0999 V2000
    4.5400   -1.7058    0.8020 C   0  0  0  0  0  0  0  0  0  0  0  0
    4.4730   -0.2322    0.6374 C   0  0  0  0  0  0  0  0  0  0  0  0
    5.2631    0.6387    1.2333 N   0  0  0  0  0  0  0  0  0  0  0  0
    4.8580    1.8726    0.7990 C   0  0  0  0  0  0  0  0  0  0  0  0
    3.8061    1.7576   -0.0753 C   0  0  0  0  0  0  0  0  0  0  0  0
    3.5618    0.4158   -0.1667 N   0  0  0  0  0  0  0  0  0  0  0  0
    2.5314   -0.2002   -0.9891 C   0  0  0  0  0  0  0  0  0  0  0  0
    1.2319   -0.4458   -0.2110 C   0  0  0  0  0  0  0  0  0  0  0  0
    0.5945   -1.7878   -0.6431 C   0  0  0  0  0  0  0  0  0  0  0  0
   -0.7020   -2.0910    0.1260 C   0  0  0  0  0  0  0  0  0  0  0  0
   -1.5784   -0.8876    0.0940 C   0  0  0  0  0  0  0  0  0  0  0  0
   -1.1592    0.4047   -0.1654 C   0  0  0  0  0  0  0  0  0  0  0  0
    0.2430    0.7149   -0.4241 C   0  0  0  0  0  0  0  0  0  0  0  0
    0.6103    1.8395   -0.7531 O   0  0  0  0  0  0  0  0  0  0  0  0
   -2.3078    1.2425   -0.1420 C   0  0  0  0  0  0  0  0  0  0  0  0
   -2.5196    2.6219   -0.3466 C   0  0  0  0  0  0  0  0  0  0  0  0
   -3.8122    3.1466   -0.2546 C   0  0  0  0  0  0  0  0  0  0  0  0
   -4.8908    2.3186    0.0372 C   0  0  0  0  0  0  0  0  0  0  0  0
   -4.7096    0.9482    0.2471 C   0  0  0  0  0  0  0  0  0  0  0  0
   -3.4072    0.4280    0.1559 C   0  0  0  0  0  0  0  0  0  0  0  0
   -2.9312   -0.8613    0.3182 N   0  0  0  0  0  0  0  0  0  0  0  0
   -3.7562   -1.9991    0.6643 C   0  0  0  0  0  0  0  0  0  0  0  0
    5.2892   -1.9726    1.5541 H   0  0  0  0  0  0  0  0  0  0  0  0
    4.8212   -2.1874   -0.1393 H   0  0  0  0  0  0  0  0  0  0  0  0
    3.5767   -2.1070    1.1308 H   0  0  0  0  0  0  0  0  0  0  0  0
    5.3441    2.7776    1.1388 H   0  0  0  0  0  0  0  0  0  0  0  0
    3.2259    2.4964   -0.6119 H   0  0  0  0  0  0  0  0  0  0  0  0
    2.9582   -1.1385   -1.3620 H   0  0  0  0  0  0  0  0  0  0  0  0
    2.3840    0.4405   -1.8667 H   0  0  0  0  0  0  0  0  0  0  0  0
    1.4328   -0.4915    0.8682 H   0  0  0  0  0  0  0  0  0  0  0  0
    0.3743   -1.7544   -1.7191 H   0  0  0  0  0  0  0  0  0  0  0  0
    1.3008   -2.6115   -0.4848 H   0  0  0  0  0  0  0  0  0  0  0  0
   -1.1969   -2.9555   -0.3293 H   0  0  0  0  0  0  0  0  0  0  0  0
   -0.4673   -2.3432    1.1666 H   0  0  0  0  0  0  0  0  0  0  0  0
   -1.6815    3.2753   -0.5769 H   0  0  0  0  0  0  0  0  0  0  0  0
   -3.9710    4.2102   -0.4137 H   0  0  0  0  0  0  0  0  0  0  0  0
   -5.8900    2.7428    0.1040 H   0  0  0  0  0  0  0  0  0  0  0  0
   -5.5608    0.3145    0.4737 H   0  0  0  0  0  0  0  0  0  0  0  0
   -4.2333   -2.3621   -0.2492 H   0  0  0  0  0  0  0  0  0  0  0  0
   -4.5070   -1.6897    1.3957 H   0  0  0  0  0  0  0  0  0  0  0  0
   -3.1382   -2.7827    1.1083 H   0  0  0  0  0  0  0  0  0  0  0  0
  1  2  1  0
  2  3  2  0
  3  4  1  0
  4  5  2  0
  5  6  1  0
  6  7  1  0
  7  8  1  0
  8  9  1  0
  9 10  1  0
 10 11  1  0
 11 12  2  0
 12 13  1  0
 13 14  2  0
 12 15  1  0
 15 16  2  0
 16 17  1  0
 17 18  2  0
 18 19  1  0
 19 20  2  0
 20 21  1  0
 21 22  1  0
  6  2  1  0
 13  8  1  0
 20 15  1  0
 21 11  1  0
  1 23  1  0
  1 24  1  0
  1 25  1  0
  4 26  1  0
  5 27  1  0
  7 28  1  0
  7 29  1  0
  8 30  1  0
  9 31  1  0
  9 32  1  0
 10 33  1  0
 10 34  1  0
 16 35  1  0
 17 36  1  0
 18 37  1  0
 19 38  1  0
 22 39  1  0
 22 40  1  0
 22 41  1  0
M  END
