
     RDKit          3D

 50 50  0  0  0  0  0  0  0  0999 V2000
    4.4213    0.1393    4.0032 C   0  0  0  0  0  0  0  0  0  0  0  0
    4.2592   -0.9602    2.9707 C   0  0  0  0  0  0  0  0  0  0  0  0
    3.4349   -0.5037    1.8883 O   0  0  0  0  0  0  0  0  0  0  0  0
    2.0988   -0.6606    2.0594 C   0  0  0  0  0  0  0  0  0  0  0  0
    1.5525   -1.1438    3.0388 O   0  0  0  0  0  0  0  0  0  0  0  0
    1.3748   -0.1536    0.8612 C   0  0  0  0  0  0  0  0  0  0  0  0
    0.0652   -0.4487    0.7451 C   0  0  0  0  0  0  0  0  0  0  0  0
   -0.7889   -0.0168   -0.4172 C   0  0  0  0  0  0  0  0  0  0  0  0
   -1.5786   -1.1336   -0.8466 O   0  0  0  0  0  0  0  0  0  0  0  0
   -2.8542   -1.2468   -0.1971 C   0  0  0  0  0  0  0  0  0  0  0  0
   -3.8718   -0.3801   -0.9579 C   0  0  0  0  0  0  0  0  0  0  0  0
   -5.2452   -0.3320   -0.3077 C   0  0  0  0  0  0  0  0  0  0  0  0
   -3.2437   -2.7335   -0.2100 C   0  0  0  0  0  0  0  0  0  0  0  0
   -2.2347   -3.6027    0.5321 C   0  0  0  0  0  0  0  0  0  0  0  0
    0.0785    0.4400   -1.6279 C   0  0  0  0  0  0  0  0  0  0  0  0
   -0.7378    0.9975   -2.7308 N   0  0  0  0  0  0  0  0  0  0  0  0
    1.1664    1.4220   -1.1142 C   0  0  0  0  0  0  0  0  0  0  0  0
    1.9146    2.0449   -2.2072 N   0  0  0  0  0  0  0  0  0  0  0  0
    1.4812    3.2337   -2.7583 C   0  0  0  0  0  0  0  0  0  0  0  0
    2.2102    3.6278   -4.0143 C   0  0  0  0  0  0  0  0  0  0  0  0
    0.5798    3.9187   -2.2840 O   0  0  0  0  0  0  0  0  0  0  0  0
    2.1121    0.6840   -0.1499 C   0  0  0  0  0  0  0  0  0  0  0  0
    3.4566    0.4107    4.4435 H   0  0  0  0  0  0  0  0  0  0  0  0
    5.0947   -0.1775    4.8047 H   0  0  0  0  0  0  0  0  0  0  0  0
    4.8256    1.0449    3.5392 H   0  0  0  0  0  0  0  0  0  0  0  0
    5.2360   -1.2109    2.5445 H   0  0  0  0  0  0  0  0  0  0  0  0
    3.8591   -1.8767    3.4191 H   0  0  0  0  0  0  0  0  0  0  0  0
   -0.4292   -1.0336    1.5185 H   0  0  0  0  0  0  0  0  0  0  0  0
   -1.4328    0.8115   -0.0945 H   0  0  0  0  0  0  0  0  0  0  0  0
   -2.7794   -0.9106    0.8449 H   0  0  0  0  0  0  0  0  0  0  0  0
   -3.9643   -0.7371   -1.9912 H   0  0  0  0  0  0  0  0  0  0  0  0
   -3.4931    0.6454   -1.0390 H   0  0  0  0  0  0  0  0  0  0  0  0
   -5.8869    0.3772   -0.8407 H   0  0  0  0  0  0  0  0  0  0  0  0
   -5.1747   -0.0045    0.7345 H   0  0  0  0  0  0  0  0  0  0  0  0
   -5.7403   -1.3066   -0.3346 H   0  0  0  0  0  0  0  0  0  0  0  0
   -3.3084   -3.0924   -1.2443 H   0  0  0  0  0  0  0  0  0  0  0  0
   -4.2253   -2.8762    0.2530 H   0  0  0  0  0  0  0  0  0  0  0  0
   -2.1266   -3.2749    1.5711 H   0  0  0  0  0  0  0  0  0  0  0  0
   -1.2504   -3.5695    0.0551 H   0  0  0  0  0  0  0  0  0  0  0  0
   -2.5684   -4.6453    0.5376 H   0  0  0  0  0  0  0  0  0  0  0  0
    0.5714   -0.4414   -2.0617 H   0  0  0  0  0  0  0  0  0  0  0  0
   -1.0421    1.9419   -2.4808 H   0  0  0  0  0  0  0  0  0  0  0  0
   -1.5810    0.4280   -2.8202 H   0  0  0  0  0  0  0  0  0  0  0  0
    0.6698    2.2271   -0.5543 H   0  0  0  0  0  0  0  0  0  0  0  0
    2.4036    1.4167   -2.8324 H   0  0  0  0  0  0  0  0  0  0  0  0
    3.1504    3.0795   -4.1212 H   0  0  0  0  0  0  0  0  0  0  0  0
    2.4415    4.6958   -3.9738 H   0  0  0  0  0  0  0  0  0  0  0  0
    1.5736    3.4202   -4.8781 H   0  0  0  0  0  0  0  0  0  0  0  0
    2.7914    0.0351   -0.7183 H   0  0  0  0  0  0  0  0  0  0  0  0
    2.7349    1.4317    0.3574 H   0  0  0  0  0  0  0  0  0  0  0  0
  1  2  1  0
  2  3  1  0
  3  4  1  0
  4  5  2  0
  4  6  1  0
  6  7  2  0
  7  8  1  0
  8  9  1  0
  9 10  1  0
 10 11  1  0
 11 12  1  0
 10 13  1  0
 13 14  1  0
  8 15  1  0
 15 16  1  0
 15 17  1  0
 17 18  1  0
 18 19  1  0
 19 20  1  0
 19 21  2  0
 17 22  1  0
 22  6  1  0
  1 23  1  0
  1 24  1  0
  1 25  1  0
  2 26  1  0
  2 27  1  0
  7 28  1  0
  8 29  1  0
 10 30  1  0
 11 31  1  0
 11 32  1  0
 12 33  1  0
 12 34  1  0
 12 35  1  0
 13 36  1  0
 13 37  1  0
 14 38  1  0
 14 39  1  0
 14 40  1  0
 15 41  1  0
 16 42  1  0
 16 43  1  0
 17 44  1  0
 18 45  1  0
 20 46  1  0
 20 47  1  0
 20 48  1  0
 22 49  1  0
 22 50  1  0
M  END
