
     RDKit          3D

 44 47  0  0  0  0  0  0  0  0999 V2000
   -5.0144    0.6231   -4.0265 F   0  0  0  0  0  0  0  0  0  0  0  0
   -4.3229    0.6325   -2.8794 C   0  0  0  0  0  0  0  0  0  0  0  0
   -4.3619   -0.4783   -2.0472 C   0  0  0  0  0  0  0  0  0  0  0  0
   -3.6422   -0.4691   -0.8510 C   0  0  0  0  0  0  0  0  0  0  0  0
   -2.8792    0.6525   -0.4840 C   0  0  0  0  0  0  0  0  0  0  0  0
   -2.8569    1.7645   -1.3431 C   0  0  0  0  0  0  0  0  0  0  0  0
   -3.5775    1.7534   -2.5386 C   0  0  0  0  0  0  0  0  0  0  0  0
   -2.0853    0.6860    0.8139 C   0  0  1  0  0  0  0  0  0  0  0  0
   -2.9986    0.5438    2.0407 C   0  0  0  0  0  0  0  0  0  0  0  0
   -2.1939    0.7131    3.3340 C   0  0  0  0  0  0  0  0  0  0  0  0
   -0.8172    0.2205    3.2452 N   0  0  0  0  0  0  0  0  0  0  0  0
   -0.6862   -0.8715    2.2849 C   0  0  0  0  0  0  0  0  0  0  0  0
   -0.9528   -0.3793    0.8469 C   0  0  2  0  0  0  0  0  0  0  0  0
    0.3240    0.1860    0.1987 C   0  0  0  0  0  0  0  0  0  0  0  0
    1.2708   -0.8766    0.0511 O   0  0  0  0  0  0  0  0  0  0  0  0
    2.4819   -0.5645   -0.5049 C   0  0  0  0  0  0  0  0  0  0  0  0
    2.8776    0.7109   -0.9502 C   0  0  0  0  0  0  0  0  0  0  0  0
    4.1480    0.9116   -1.5056 C   0  0  0  0  0  0  0  0  0  0  0  0
    4.9887   -0.1751   -1.5996 C   0  0  0  0  0  0  0  0  0  0  0  0
    6.2492   -0.1652   -2.1083 O   0  0  0  0  0  0  0  0  0  0  0  0
    6.6170   -1.5510   -1.9459 C   0  0  0  0  0  0  0  0  0  0  0  0
    5.5790   -2.3545   -1.3476 O   0  0  0  0  0  0  0  0  0  0  0  0
    4.6064   -1.4213   -1.1663 C   0  0  0  0  0  0  0  0  0  0  0  0
    3.3629   -1.6467   -0.6162 C   0  0  0  0  0  0  0  0  0  0  0  0
   -4.9504   -1.3437   -2.3340 H   0  0  0  0  0  0  0  0  0  0  0  0
   -3.6802   -1.3470   -0.2099 H   0  0  0  0  0  0  0  0  0  0  0  0
   -2.2782    2.6495   -1.0870 H   0  0  0  0  0  0  0  0  0  0  0  0
   -3.5621    2.6105   -3.2040 H   0  0  0  0  0  0  0  0  0  0  0  0
   -1.6212    1.6807    0.8925 H   0  0  0  0  0  0  0  0  0  0  0  0
   -3.4827   -0.4416    2.0430 H   0  0  0  0  0  0  0  0  0  0  0  0
   -3.8057    1.2865    2.0142 H   0  0  0  0  0  0  0  0  0  0  0  0
   -2.1530    1.7744    3.6035 H   0  0  0  0  0  0  0  0  0  0  0  0
   -2.7210    0.2011    4.1477 H   0  0  0  0  0  0  0  0  0  0  0  0
   -0.5036   -0.0828    4.1675 H   0  0  0  0  0  0  0  0  0  0  0  0
   -1.3834   -1.6789    2.5442 H   0  0  0  0  0  0  0  0  0  0  0  0
    0.3172   -1.3031    2.3675 H   0  0  0  0  0  0  0  0  0  0  0  0
   -1.2408   -1.2707    0.2734 H   0  0  0  0  0  0  0  0  0  0  0  0
    0.7431    0.9801    0.8290 H   0  0  0  0  0  0  0  0  0  0  0  0
    0.0823    0.5892   -0.7920 H   0  0  0  0  0  0  0  0  0  0  0  0
    2.2166    1.5685   -0.8769 H   0  0  0  0  0  0  0  0  0  0  0  0
    4.4614    1.8902   -1.8511 H   0  0  0  0  0  0  0  0  0  0  0  0
    7.5104   -1.6045   -1.3129 H   0  0  0  0  0  0  0  0  0  0  0  0
    6.8588   -1.9671   -2.9307 H   0  0  0  0  0  0  0  0  0  0  0  0
    3.0761   -2.6363   -0.2792 H   0  0  0  0  0  0  0  0  0  0  0  0
  1  2  1  0
  2  3  1  0
  3  4  2  0
  4  5  1  0
  5  6  2  0
  6  7  1  0
  5  8  1  0
  8  9  1  0
  9 10  1  0
 10 11  1  0
 11 12  1  0
 12 13  1  0
 13 14  1  0
 14 15  1  0
 15 16  1  0
 16 17  1  0
 17 18  2  0
 18 19  1  0
 19 20  1  0
 20 21  1  0
 21 22  1  0
 22 23  1  0
 23 24  1  0
  7  2  2  0
 13  8  1  0
 24 16  2  0
 23 19  2  0
  3 25  1  0
  4 26  1  0
  6 27  1  0
  7 28  1  0
  8 29  1  1
  9 30  1  0
  9 31  1  0
 10 32  1  0
 10 33  1  0
 11 34  1  0
 12 35  1  0
 12 36  1  0
 13 37  1  6
 14 38  1  0
 14 39  1  0
 17 40  1  0
 18 41  1  0
 21 42  1  0
 21 43  1  0
 24 44  1  0
M  END
