
     RDKit          3D

 45 47  0  0  0  0  0  0  0  0999 V2000
    7.6037   -1.5125    0.0617 C   0  0  0  0  0  0  0  0  0  0  0  0
    7.1689   -0.4371   -0.9222 C   0  0  0  0  0  0  0  0  0  0  0  0
    5.8776    0.2097   -0.5102 C   0  0  0  0  0  0  0  0  0  0  0  0
    5.8559    1.3303    0.3191 C   0  0  0  0  0  0  0  0  0  0  0  0
    4.6361    1.8902    0.6920 C   0  0  0  0  0  0  0  0  0  0  0  0
    3.4557    1.3121    0.2307 C   0  0  0  0  0  0  0  0  0  0  0  0
    2.1336    1.9174    0.6296 C   0  0  0  0  0  0  0  0  0  0  0  0
    0.9145    1.1689    0.0939 C   0  0  0  0  0  0  0  0  0  0  0  0
   -0.2567    1.8495    0.5593 O   0  0  0  0  0  0  0  0  0  0  0  0
   -1.4644    1.3267    0.1866 C   0  0  0  0  0  0  0  0  0  0  0  0
   -1.6616    0.1974   -0.6066 C   0  0  0  0  0  0  0  0  0  0  0  0
   -2.9581   -0.2320   -0.9128 C   0  0  0  0  0  0  0  0  0  0  0  0
   -4.0738    0.4618   -0.4304 C   0  0  0  0  0  0  0  0  0  0  0  0
   -5.4771   -0.0104   -0.7405 C   0  0  0  0  0  0  0  0  0  0  0  0
   -6.0314   -0.9218    0.3557 C   0  0  0  0  0  0  0  0  0  0  0  0
   -7.8561   -0.8056    0.4553 S   0  0  0  0  0  0  0  0  0  0  0  0
   -8.0686   -2.5348    0.4042 C   0  0  0  0  0  0  0  0  0  0  0  0
   -9.1550   -3.0860    0.3813 O   0  0  0  0  0  0  0  0  0  0  0  0
   -6.8703   -3.1567    0.3374 N   0  0  0  0  0  0  0  0  0  0  0  0
   -5.7714   -2.3928    0.0803 C   0  0  0  0  0  0  0  0  0  0  0  0
   -4.7219   -2.8734   -0.3252 O   0  0  0  0  0  0  0  0  0  0  0  0
   -3.8705    1.5939    0.3679 C   0  0  0  0  0  0  0  0  0  0  0  0
   -2.5752    2.0206    0.6700 C   0  0  0  0  0  0  0  0  0  0  0  0
    3.4536    0.2208   -0.5704 N   0  0  0  0  0  0  0  0  0  0  0  0
    4.6519   -0.3029   -0.9176 C   0  0  0  0  0  0  0  0  0  0  0  0
    8.5455   -1.9652   -0.2642 H   0  0  0  0  0  0  0  0  0  0  0  0
    6.8540   -2.3074    0.1386 H   0  0  0  0  0  0  0  0  0  0  0  0
    7.7559   -1.0964    1.0633 H   0  0  0  0  0  0  0  0  0  0  0  0
    7.9529    0.3254   -1.0067 H   0  0  0  0  0  0  0  0  0  0  0  0
    7.0610   -0.8729   -1.9230 H   0  0  0  0  0  0  0  0  0  0  0  0
    6.7819    1.7719    0.6785 H   0  0  0  0  0  0  0  0  0  0  0  0
    4.6115    2.7645    1.3348 H   0  0  0  0  0  0  0  0  0  0  0  0
    2.0966    2.9572    0.2806 H   0  0  0  0  0  0  0  0  0  0  0  0
    2.0737    1.9571    1.7248 H   0  0  0  0  0  0  0  0  0  0  0  0
    0.9320    1.1685   -1.0031 H   0  0  0  0  0  0  0  0  0  0  0  0
    0.9184    0.1379    0.4693 H   0  0  0  0  0  0  0  0  0  0  0  0
   -0.8300   -0.3768   -1.0027 H   0  0  0  0  0  0  0  0  0  0  0  0
   -3.0839   -1.1215   -1.5279 H   0  0  0  0  0  0  0  0  0  0  0  0
   -5.4836   -0.5122   -1.7172 H   0  0  0  0  0  0  0  0  0  0  0  0
   -6.0982    0.8873   -0.8626 H   0  0  0  0  0  0  0  0  0  0  0  0
   -5.6294   -0.6824    1.3463 H   0  0  0  0  0  0  0  0  0  0  0  0
   -6.8456   -4.1470    0.1505 H   0  0  0  0  0  0  0  0  0  0  0  0
   -4.7153    2.1563    0.7594 H   0  0  0  0  0  0  0  0  0  0  0  0
   -2.4297    2.9028    1.2885 H   0  0  0  0  0  0  0  0  0  0  0  0
    4.5931   -1.1803   -1.5564 H   0  0  0  0  0  0  0  0  0  0  0  0
  1  2  1  0
  2  3  1  0
  3  4  2  0
  4  5  1  0
  5  6  2  0
  6  7  1  0
  7  8  1  0
  8  9  1  0
  9 10  1  0
 10 11  1  0
 11 12  2  0
 12 13  1  0
 13 14  1  0
 14 15  1  0
 15 16  1  0
 16 17  1  0
 17 18  2  0
 17 19  1  0
 19 20  1  0
 20 21  2  0
 13 22  2  0
 22 23  1  0
  6 24  1  0
 24 25  2  0
 25  3  1  0
 23 10  2  0
 20 15  1  0
  1 26  1  0
  1 27  1  0
  1 28  1  0
  2 29  1  0
  2 30  1  0
  4 31  1  0
  5 32  1  0
  7 33  1  0
  7 34  1  0
  8 35  1  0
  8 36  1  0
 11 37  1  0
 12 38  1  0
 14 39  1  0
 14 40  1  0
 15 41  1  0
 19 42  1  0
 22 43  1  0
 23 44  1  0
 25 45  1  0
M  END
