
     RDKit          3D

 31 33  0  0  0  0  0  0  0  0999 V2000
   -3.2712    2.1173    0.3355 N   0  0  0  0  0  0  0  0  0  0  0  0
   -3.1539    0.7263    0.3502 C   0  0  0  0  0  0  0  0  0  0  0  0
   -4.2990   -0.0829    0.3774 C   0  0  0  0  0  0  0  0  0  0  0  0
   -4.2172   -1.4875    0.2536 C   0  0  0  0  0  0  0  0  0  0  0  0
   -2.9866   -2.1161    0.0590 C   0  0  0  0  0  0  0  0  0  0  0  0
   -1.8742   -1.3025   -0.0162 C   0  0  0  0  0  0  0  0  0  0  0  0
   -1.9545    0.0738    0.1119 C   0  0  0  0  0  0  0  0  0  0  0  0
   -0.5924    0.5984   -0.0057 C   0  0  0  0  0  0  0  0  0  0  0  0
   -0.2883    1.7662    0.1576 O   0  0  0  0  0  0  0  0  0  0  0  0
    0.2236   -0.4692   -0.2671 N   0  0  0  0  0  0  0  0  0  0  0  0
    1.6765   -0.4165   -0.3129 C   0  0  0  0  0  0  0  0  0  0  0  0
    2.2350    0.6659   -1.2329 C   0  0  0  0  0  0  0  0  0  0  0  0
    3.7548    0.5946   -1.2241 C   0  0  0  0  0  0  0  0  0  0  0  0
    4.3021    0.7215    0.1791 C   0  0  0  0  0  0  0  0  0  0  0  0
    5.4146    1.1859    0.4093 O   0  0  0  0  0  0  0  0  0  0  0  0
    3.5140    0.2360    1.1930 N   0  0  0  0  0  0  0  0  0  0  0  0
    2.2232   -0.2366    1.1073 C   0  0  0  0  0  0  0  0  0  0  0  0
    1.6026   -0.5389    2.1250 O   0  0  0  0  0  0  0  0  0  0  0  0
   -0.4720   -1.6469   -0.2334 C   0  0  0  0  0  0  0  0  0  0  0  0
   -0.0549   -2.7827   -0.3572 O   0  0  0  0  0  0  0  0  0  0  0  0
   -2.3920    2.6016    0.5349 H   0  0  0  0  0  0  0  0  0  0  0  0
   -4.0503    2.4903    0.8682 H   0  0  0  0  0  0  0  0  0  0  0  0
   -5.2809    0.3734    0.4909 H   0  0  0  0  0  0  0  0  0  0  0  0
   -5.1280   -2.0820    0.2967 H   0  0  0  0  0  0  0  0  0  0  0  0
   -2.9050   -3.1933   -0.0424 H   0  0  0  0  0  0  0  0  0  0  0  0
    2.0372   -1.3961   -0.6537 H   0  0  0  0  0  0  0  0  0  0  0  0
    1.8585    0.5310   -2.2533 H   0  0  0  0  0  0  0  0  0  0  0  0
    1.9291    1.6654   -0.9037 H   0  0  0  0  0  0  0  0  0  0  0  0
    4.1069   -0.3535   -1.6451 H   0  0  0  0  0  0  0  0  0  0  0  0
    4.1606    1.4116   -1.8304 H   0  0  0  0  0  0  0  0  0  0  0  0
    3.8820    0.3454    2.1285 H   0  0  0  0  0  0  0  0  0  0  0  0
  1  2  1  0
  2  3  2  0
  3  4  1  0
  4  5  2  0
  5  6  1  0
  6  7  2  0
  7  8  1  0
  8  9  2  0
  8 10  1  0
 10 11  1  0
 11 12  1  0
 12 13  1  0
 13 14  1  0
 14 15  2  0
 14 16  1  0
 16 17  1  0
 17 18  2  0
 10 19  1  0
 19 20  2  0
  7  2  1  0
 17 11  1  0
 19  6  1  0
  1 21  1  0
  1 22  1  0
  3 23  1  0
  4 24  1  0
  5 25  1  0
 11 26  1  0
 12 27  1  0
 12 28  1  0
 13 29  1  0
 13 30  1  0
 16 31  1  0
M  END
