
     RDKit          3D

 31 32  0  0  0  0  0  0  0  0999 V2000
   -4.3889   -0.8090    0.3760 C   0  0  0  0  0  0  0  0  0  0  0  0
   -3.8615    0.5223   -0.1406 C   0  0  0  0  0  0  0  0  0  0  0  0
   -2.3357    0.6562   -0.0611 C   0  0  0  0  0  0  0  0  0  0  0  0
   -1.6699   -0.2719   -0.9729 N   0  0  0  0  0  0  0  0  0  0  0  0
   -0.1970   -0.2362   -0.9570 C   0  0  0  0  0  0  0  0  0  0  0  0
    0.3912    1.1660   -1.2609 C   0  0  0  0  0  0  0  0  0  0  0  0
    1.9141    1.1068   -1.4840 C   0  0  0  0  0  0  0  0  0  0  0  0
    2.5789    0.2589   -0.4544 C   0  0  0  0  0  0  0  0  0  0  0  0
    3.9425    0.2987   -0.2593 N   0  0  0  0  0  0  0  0  0  0  0  0
    4.2793   -0.5595    0.6739 C   0  0  0  0  0  0  0  0  0  0  0  0
    5.5467   -0.7368    1.0839 N   0  0  0  0  0  0  0  0  0  0  0  0
    2.9777   -1.4419    1.3771 S   0  0  0  0  0  0  0  0  0  0  0  0
    1.8962   -0.6345    0.3434 C   0  0  0  0  0  0  0  0  0  0  0  0
    0.4196   -0.8474    0.3356 C   0  0  0  0  0  0  0  0  0  0  0  0
   -4.0721   -1.6427   -0.2574 H   0  0  0  0  0  0  0  0  0  0  0  0
   -4.0431   -0.9984    1.3971 H   0  0  0  0  0  0  0  0  0  0  0  0
   -5.4836   -0.7995    0.3860 H   0  0  0  0  0  0  0  0  0  0  0  0
   -4.1994    0.6727   -1.1732 H   0  0  0  0  0  0  0  0  0  0  0  0
   -4.3093    1.3266    0.4558 H   0  0  0  0  0  0  0  0  0  0  0  0
   -2.0202    0.4917    0.9742 H   0  0  0  0  0  0  0  0  0  0  0  0
   -2.0858    1.6883   -0.3283 H   0  0  0  0  0  0  0  0  0  0  0  0
   -1.9821   -1.2249   -0.7885 H   0  0  0  0  0  0  0  0  0  0  0  0
    0.1110   -0.8841   -1.7905 H   0  0  0  0  0  0  0  0  0  0  0  0
    0.1874    1.8447   -0.4225 H   0  0  0  0  0  0  0  0  0  0  0  0
   -0.0820    1.5982   -2.1508 H   0  0  0  0  0  0  0  0  0  0  0  0
    2.1213    0.6824   -2.4736 H   0  0  0  0  0  0  0  0  0  0  0  0
    2.3290    2.1205   -1.4675 H   0  0  0  0  0  0  0  0  0  0  0  0
    6.1754    0.0181    0.8333 H   0  0  0  0  0  0  0  0  0  0  0  0
    5.6784   -1.0791    2.0272 H   0  0  0  0  0  0  0  0  0  0  0  0
    0.1800   -1.9162    0.3873 H   0  0  0  0  0  0  0  0  0  0  0  0
    0.0018   -0.3700    1.2292 H   0  0  0  0  0  0  0  0  0  0  0  0
  1  2  1  0
  2  3  1  0
  3  4  1  0
  4  5  1  0
  5  6  1  0
  6  7  1  0
  7  8  1  0
  8  9  1  0
  9 10  2  0
 10 11  1  0
 10 12  1  0
 12 13  1  0
 13 14  1  0
 14  5  1  0
 13  8  2  0
  1 15  1  0
  1 16  1  0
  1 17  1  0
  2 18  1  0
  2 19  1  0
  3 20  1  0
  3 21  1  0
  4 22  1  0
  5 23  1  0
  6 24  1  0
  6 25  1  0
  7 26  1  0
  7 27  1  0
 11 28  1  0
 11 29  1  0
 14 30  1  0
 14 31  1  0
M  END
