
     RDKit          3D

 52 55  0  0  0  0  0  0  0  0999 V2000
   -1.9787   -2.3889   -0.8413 C   0  0  0  0  0  0  0  0  0  0  0  0
   -1.7436   -0.9733   -0.2768 C   0  0  0  0  0  0  0  0  0  0  0  0
   -1.1854   -0.0866   -1.4153 C   0  0  0  0  0  0  0  0  0  0  0  0
    0.0112    0.7202   -0.9650 C   0  0  0  0  0  0  0  0  0  0  0  0
   -0.0194    1.9465   -0.9915 O   0  0  0  0  0  0  0  0  0  0  0  0
    1.2063   -0.1097   -0.5079 C   0  0  0  0  0  0  0  0  0  0  0  0
    0.7386   -1.1432    0.5601 C   0  0  0  0  0  0  0  0  0  0  0  0
    1.6230   -1.2056    1.8150 C   0  0  0  0  0  0  0  0  0  0  0  0
    3.1202   -1.2104    1.5121 C   0  0  0  0  0  0  0  0  0  0  0  0
    3.5236   -0.3695    0.3252 C   0  0  0  0  0  0  0  0  0  0  0  0
    4.7087   -0.6106   -0.2662 C   0  0  0  0  0  0  0  0  0  0  0  0
    5.1481    0.1132   -1.4763 C   0  0  0  0  0  0  0  0  0  0  0  0
    6.2364   -0.1079   -1.9910 O   0  0  0  0  0  0  0  0  0  0  0  0
    4.2123    1.0974   -2.0482 C   0  0  0  0  0  0  0  0  0  0  0  0
    3.0291    1.3367   -1.4681 C   0  0  0  0  0  0  0  0  0  0  0  0
    2.5198    0.6686   -0.1909 C   0  0  0  0  0  0  0  0  0  0  0  0
    2.3839    1.8025    0.8474 C   0  0  0  0  0  0  0  0  0  0  0  0
   -0.7625   -1.0414    0.9373 C   0  0  0  0  0  0  0  0  0  0  0  0
   -1.1286    0.1703    1.8249 C   0  0  0  0  0  0  0  0  0  0  0  0
   -2.4632    0.7159    1.3122 C   0  0  0  0  0  0  0  0  0  0  0  0
   -3.0179   -0.3747    0.4010 C   0  0  0  0  0  0  0  0  0  0  0  0
   -3.6156   -1.3593    1.2659 O   0  0  0  0  0  0  0  0  0  0  0  0
   -4.1363    0.0537   -0.5644 C   0  0  0  0  0  0  0  0  0  0  0  0
   -4.8234   -0.8049   -1.1350 O   0  0  0  0  0  0  0  0  0  0  0  0
   -4.4337    1.5341   -0.7664 C   0  0  0  0  0  0  0  0  0  0  0  0
   -5.3806    1.7332   -1.8078 O   0  0  0  0  0  0  0  0  0  0  0  0
   -1.0541   -2.8077   -1.2544 H   0  0  0  0  0  0  0  0  0  0  0  0
   -2.7206   -2.3751   -1.6464 H   0  0  0  0  0  0  0  0  0  0  0  0
   -2.3282   -3.0881   -0.0747 H   0  0  0  0  0  0  0  0  0  0  0  0
   -1.9343    0.5933   -1.8280 H   0  0  0  0  0  0  0  0  0  0  0  0
   -0.8441   -0.6915   -2.2654 H   0  0  0  0  0  0  0  0  0  0  0  0
    1.4382   -0.7121   -1.4043 H   0  0  0  0  0  0  0  0  0  0  0  0
    0.8577   -2.1270    0.0800 H   0  0  0  0  0  0  0  0  0  0  0  0
    1.3999   -0.3791    2.4957 H   0  0  0  0  0  0  0  0  0  0  0  0
    1.3784   -2.1100    2.3878 H   0  0  0  0  0  0  0  0  0  0  0  0
    3.4276   -2.2499    1.3360 H   0  0  0  0  0  0  0  0  0  0  0  0
    3.6599   -0.8663    2.4029 H   0  0  0  0  0  0  0  0  0  0  0  0
    5.4044   -1.3575    0.1005 H   0  0  0  0  0  0  0  0  0  0  0  0
    4.5372    1.6114   -2.9445 H   0  0  0  0  0  0  0  0  0  0  0  0
    2.3855    2.0887   -1.9241 H   0  0  0  0  0  0  0  0  0  0  0  0
    1.9022    1.4900    1.7739 H   0  0  0  0  0  0  0  0  0  0  0  0
    3.3703    2.1983    1.1243 H   0  0  0  0  0  0  0  0  0  0  0  0
    1.8084    2.6522    0.4649 H   0  0  0  0  0  0  0  0  0  0  0  0
   -1.0031   -1.9389    1.5273 H   0  0  0  0  0  0  0  0  0  0  0  0
   -1.2240   -0.1520    2.8687 H   0  0  0  0  0  0  0  0  0  0  0  0
   -0.3776    0.9646    1.8063 H   0  0  0  0  0  0  0  0  0  0  0  0
   -3.1322    0.9442    2.1493 H   0  0  0  0  0  0  0  0  0  0  0  0
   -2.2761    1.6510    0.7754 H   0  0  0  0  0  0  0  0  0  0  0  0
   -4.1539   -1.9464    0.6966 H   0  0  0  0  0  0  0  0  0  0  0  0
   -3.5249    2.0711   -1.0432 H   0  0  0  0  0  0  0  0  0  0  0  0
   -4.8469    1.9445    0.1584 H   0  0  0  0  0  0  0  0  0  0  0  0
   -5.9222    0.9198   -1.8519 H   0  0  0  0  0  0  0  0  0  0  0  0
  1  2  1  0
  2  3  1  0
  3  4  1  0
  4  5  2  0
  4  6  1  0
  6  7  1  0
  7  8  1  0
  8  9  1  0
  9 10  1  0
 10 11  2  0
 11 12  1  0
 12 13  2  0
 12 14  1  0
 14 15  2  0
 15 16  1  0
 16 17  1  0
  7 18  1  0
 18 19  1  0
 19 20  1  0
 20 21  1  0
 21 22  1  0
 21 23  1  0
 23 24  2  0
 23 25  1  0
 25 26  1  0
 18  2  1  0
 21  2  1  0
 16  6  1  0
 16 10  1  0
  1 27  1  0
  1 28  1  0
  1 29  1  0
  3 30  1  0
  3 31  1  0
  6 32  1  0
  7 33  1  0
  8 34  1  0
  8 35  1  0
  9 36  1  0
  9 37  1  0
 11 38  1  0
 14 39  1  0
 15 40  1  0
 17 41  1  0
 17 42  1  0
 17 43  1  0
 18 44  1  0
 19 45  1  0
 19 46  1  0
 20 47  1  0
 20 48  1  0
 22 49  1  0
 25 50  1  0
 25 51  1  0
 26 52  1  0
M  END
