
     RDKit          3D

 28 27  0  0  0  0  0  0  0  0999 V2000
    2.8225   -0.0934    1.0391 C   0  0  0  0  0  0  0  0  0  0  0  0
    1.5653   -0.6386    0.3512 C   0  0  0  0  0  0  0  0  0  0  0  0
    1.8701   -0.9168   -1.1210 C   0  0  0  0  0  0  0  0  0  0  0  0
    0.4042    0.3592    0.5370 C   0  0  0  0  0  0  0  0  0  0  0  0
   -0.9656   -0.0082   -0.0940 C   0  0  0  0  0  0  0  0  0  0  0  0
   -1.6855   -1.1646    0.6323 C   0  0  0  0  0  0  0  0  0  0  0  0
   -1.0362   -2.4546    0.4517 N   0  0  0  0  0  0  0  0  0  0  0  0
   -1.8926    1.2291   -0.0556 C   0  0  0  0  0  0  0  0  0  0  0  0
   -1.4900    2.2909   -1.0459 C   0  0  0  0  0  0  0  0  0  0  0  0
   -0.8173    2.1505   -2.0522 O   0  0  0  0  0  0  0  0  0  0  0  0
   -2.0061    3.4949   -0.7303 O   0  0  0  0  0  0  0  0  0  0  0  0
    3.1456    0.8515    0.5889 H   0  0  0  0  0  0  0  0  0  0  0  0
    2.6376    0.0831    2.1041 H   0  0  0  0  0  0  0  0  0  0  0  0
    3.6499   -0.8066    0.9591 H   0  0  0  0  0  0  0  0  0  0  0  0
    1.3229   -1.5849    0.8440 H   0  0  0  0  0  0  0  0  0  0  0  0
    2.0630    0.0119   -1.6685 H   0  0  0  0  0  0  0  0  0  0  0  0
    1.0417   -1.4361   -1.6113 H   0  0  0  0  0  0  0  0  0  0  0  0
    2.7541   -1.5562   -1.2203 H   0  0  0  0  0  0  0  0  0  0  0  0
    0.2569    0.5283    1.6125 H   0  0  0  0  0  0  0  0  0  0  0  0
    0.7332    1.3241    0.1292 H   0  0  0  0  0  0  0  0  0  0  0  0
   -0.8228   -0.2880   -1.1445 H   0  0  0  0  0  0  0  0  0  0  0  0
   -2.7113   -1.2551    0.2562 H   0  0  0  0  0  0  0  0  0  0  0  0
   -1.7554   -0.9476    1.7043 H   0  0  0  0  0  0  0  0  0  0  0  0
   -1.6018   -3.1869    0.8787 H   0  0  0  0  0  0  0  0  0  0  0  0
   -0.9786   -2.6776   -0.5414 H   0  0  0  0  0  0  0  0  0  0  0  0
   -1.8939    1.6611    0.9522 H   0  0  0  0  0  0  0  0  0  0  0  0
   -2.9214    0.9468   -0.3086 H   0  0  0  0  0  0  0  0  0  0  0  0
   -1.6886    4.0837   -1.4471 H   0  0  0  0  0  0  0  0  0  0  0  0
  1  2  1  0
  2  3  1  0
  2  4  1  0
  4  5  1  0
  5  6  1  0
  6  7  1  0
  5  8  1  0
  8  9  1  0
  9 10  2  0
  9 11  1  0
  1 12  1  0
  1 13  1  0
  1 14  1  0
  2 15  1  0
  3 16  1  0
  3 17  1  0
  3 18  1  0
  4 19  1  0
  4 20  1  0
  5 21  1  0
  6 22  1  0
  6 23  1  0
  7 24  1  0
  7 25  1  0
  8 26  1  0
  8 27  1  0
 11 28  1  0
M  END
