
     RDKit          3D

 40 41  0  0  0  0  0  0  0  0999 V2000
    5.6531    1.3669   -0.1209 C   0  0  0  0  0  0  0  0  0  0  0  0
    4.7343    0.1512   -0.2579 C   0  0  0  0  0  0  0  0  0  0  0  0
    4.8329   -0.4143   -1.6758 C   0  0  0  0  0  0  0  0  0  0  0  0
    3.3747    0.5784    0.0741 N   0  0  0  0  0  0  0  0  0  0  0  0
    2.4614   -0.5303    0.3740 C   0  0  0  0  0  0  0  0  0  0  0  0
    1.0308   -0.0373    0.6803 C   0  0  0  0  0  0  0  0  0  0  0  0
    1.0176    0.7350    1.8892 O   0  0  0  0  0  0  0  0  0  0  0  0
    0.0778   -1.2298    0.8504 C   0  0  0  0  0  0  0  0  0  0  0  0
   -1.2574   -0.7691    1.0883 O   0  0  0  0  0  0  0  0  0  0  0  0
   -2.0905   -0.5149    0.0261 C   0  0  0  0  0  0  0  0  0  0  0  0
   -1.7018   -0.5775   -1.3160 C   0  0  0  0  0  0  0  0  0  0  0  0
   -2.6157   -0.2921   -2.3294 C   0  0  0  0  0  0  0  0  0  0  0  0
   -3.9249    0.0608   -2.0128 C   0  0  0  0  0  0  0  0  0  0  0  0
   -4.3425    0.1353   -0.6774 C   0  0  0  0  0  0  0  0  0  0  0  0
   -5.6641    0.4945   -0.3629 C   0  0  0  0  0  0  0  0  0  0  0  0
   -6.0899    0.5721    0.9626 C   0  0  0  0  0  0  0  0  0  0  0  0
   -5.2001    0.2907    1.9914 C   0  0  0  0  0  0  0  0  0  0  0  0
   -3.8837   -0.0678    1.6936 C   0  0  0  0  0  0  0  0  0  0  0  0
   -3.4228   -0.1537    0.3608 C   0  0  0  0  0  0  0  0  0  0  0  0
    5.3747    2.1652   -0.8184 H   0  0  0  0  0  0  0  0  0  0  0  0
    6.6931    1.0902   -0.3254 H   0  0  0  0  0  0  0  0  0  0  0  0
    5.6141    1.7758    0.8951 H   0  0  0  0  0  0  0  0  0  0  0  0
    5.0761   -0.6054    0.4590 H   0  0  0  0  0  0  0  0  0  0  0  0
    4.2472   -1.3321   -1.7860 H   0  0  0  0  0  0  0  0  0  0  0  0
    4.4777    0.3064   -2.4209 H   0  0  0  0  0  0  0  0  0  0  0  0
    5.8720   -0.6611   -1.9199 H   0  0  0  0  0  0  0  0  0  0  0  0
    2.9917    1.1864   -0.6467 H   0  0  0  0  0  0  0  0  0  0  0  0
    2.4165   -1.2198   -0.4756 H   0  0  0  0  0  0  0  0  0  0  0  0
    2.8445   -1.0759    1.2447 H   0  0  0  0  0  0  0  0  0  0  0  0
    0.6807    0.6226   -0.1210 H   0  0  0  0  0  0  0  0  0  0  0  0
    0.0824    0.9482    2.0642 H   0  0  0  0  0  0  0  0  0  0  0  0
    0.3606   -1.7845    1.7534 H   0  0  0  0  0  0  0  0  0  0  0  0
    0.1248   -1.9456    0.0226 H   0  0  0  0  0  0  0  0  0  0  0  0
   -0.6935   -0.8383   -1.6158 H   0  0  0  0  0  0  0  0  0  0  0  0
   -2.3066   -0.3425   -3.3705 H   0  0  0  0  0  0  0  0  0  0  0  0
   -4.6201    0.2800   -2.8205 H   0  0  0  0  0  0  0  0  0  0  0  0
   -6.3764    0.7184   -1.1542 H   0  0  0  0  0  0  0  0  0  0  0  0
   -7.1153    0.8514    1.1896 H   0  0  0  0  0  0  0  0  0  0  0  0
   -5.5253    0.3480    3.0268 H   0  0  0  0  0  0  0  0  0  0  0  0
   -3.2079   -0.2858    2.5186 H   0  0  0  0  0  0  0  0  0  0  0  0
  1  2  1  0
  2  3  1  0
  2  4  1  0
  4  5  1  0
  5  6  1  0
  6  7  1  0
  6  8  1  0
  8  9  1  0
  9 10  1  0
 10 11  2  0
 11 12  1  0
 12 13  2  0
 13 14  1  0
 14 15  2  0
 15 16  1  0
 16 17  2  0
 17 18  1  0
 18 19  2  0
 19 10  1  0
 19 14  1  0
  1 20  1  0
  1 21  1  0
  1 22  1  0
  2 23  1  0
  3 24  1  0
  3 25  1  0
  3 26  1  0
  4 27  1  0
  5 28  1  0
  5 29  1  0
  6 30  1  0
  7 31  1  0
  8 32  1  0
  8 33  1  0
 11 34  1  0
 12 35  1  0
 13 36  1  0
 15 37  1  0
 16 38  1  0
 17 39  1  0
 18 40  1  0
M  END
