
     RDKit          3D

 27 27  0  0  0  0  0  0  0  0999 V2000
   -1.4096   -0.7966    1.2178 C   0  0  0  0  0  0  0  0  0  0  0  0
   -1.2739   -0.0015   -0.0835 C   0  0  0  0  0  0  0  0  0  0  0  0
   -2.5043   -0.0993   -0.9156 N   0  0  0  0  0  0  0  0  0  0  0  0
   -3.5742    0.7637   -0.4288 C   0  0  0  0  0  0  0  0  0  0  0  0
   -0.0746   -0.5130   -0.9448 C   0  0  0  0  0  0  0  0  0  0  0  0
   -0.1365    0.1223   -2.2313 O   0  0  0  0  0  0  0  0  0  0  0  0
    1.2798   -0.2335   -0.3316 C   0  0  0  0  0  0  0  0  0  0  0  0
    2.0225   -1.2733    0.2488 C   0  0  0  0  0  0  0  0  0  0  0  0
    3.2614   -1.0185    0.8407 C   0  0  0  0  0  0  0  0  0  0  0  0
    3.7738    0.2771    0.8586 C   0  0  0  0  0  0  0  0  0  0  0  0
    3.0503    1.3186    0.2821 C   0  0  0  0  0  0  0  0  0  0  0  0
    1.8115    1.0652   -0.3091 C   0  0  0  0  0  0  0  0  0  0  0  0
   -1.5639   -1.8629    1.0190 H   0  0  0  0  0  0  0  0  0  0  0  0
   -2.2508   -0.4410    1.8209 H   0  0  0  0  0  0  0  0  0  0  0  0
   -0.5122   -0.6958    1.8364 H   0  0  0  0  0  0  0  0  0  0  0  0
   -1.1009    1.0568    0.1519 H   0  0  0  0  0  0  0  0  0  0  0  0
   -2.8324   -1.0668   -0.9207 H   0  0  0  0  0  0  0  0  0  0  0  0
   -4.4317    0.6884   -1.1049 H   0  0  0  0  0  0  0  0  0  0  0  0
   -3.2618    1.8127   -0.4148 H   0  0  0  0  0  0  0  0  0  0  0  0
   -3.9147    0.4762    0.5699 H   0  0  0  0  0  0  0  0  0  0  0  0
   -0.1847   -1.5886   -1.1329 H   0  0  0  0  0  0  0  0  0  0  0  0
   -1.0973    0.2368   -2.3851 H   0  0  0  0  0  0  0  0  0  0  0  0
    1.6413   -2.2918    0.2419 H   0  0  0  0  0  0  0  0  0  0  0  0
    3.8288   -1.8324    1.2843 H   0  0  0  0  0  0  0  0  0  0  0  0
    4.7400    0.4741    1.3150 H   0  0  0  0  0  0  0  0  0  0  0  0
    3.4522    2.3283    0.2852 H   0  0  0  0  0  0  0  0  0  0  0  0
    1.2621    1.8842   -0.7693 H   0  0  0  0  0  0  0  0  0  0  0  0
  1  2  1  0
  2  3  1  0
  3  4  1  0
  2  5  1  0
  5  6  1  0
  5  7  1  0
  7  8  2  0
  8  9  1  0
  9 10  2  0
 10 11  1  0
 11 12  2  0
 12  7  1  0
  1 13  1  0
  1 14  1  0
  1 15  1  0
  2 16  1  0
  3 17  1  0
  4 18  1  0
  4 19  1  0
  4 20  1  0
  5 21  1  0
  6 22  1  0
  8 23  1  0
  9 24  1  0
 10 25  1  0
 11 26  1  0
 12 27  1  0
M  END
