
     RDKit          3D

 52 55  0  0  0  0  0  0  0  0999 V2000
    4.0416   -3.8557    2.2517 O   0  0  0  0  0  0  0  0  0  0  0  0
    4.3401   -2.7176    1.4509 C   0  0  0  0  0  0  0  0  0  0  0  0
    3.0852   -2.1689    0.7738 C   0  0  0  0  0  0  0  0  0  0  0  0
    3.3631   -1.0287   -0.0369 O   0  0  0  0  0  0  0  0  0  0  0  0
    3.4941    0.1802    0.7158 C   0  0  0  0  0  0  0  0  0  0  0  0
    3.5882    1.3945   -0.2325 C   0  0  0  0  0  0  0  0  0  0  0  0
    2.3515    1.8982   -0.8590 N   0  0  0  0  0  0  0  0  0  0  0  0
    1.6539    0.8654   -1.6559 C   0  0  0  0  0  0  0  0  0  0  0  0
    0.3870    1.4249   -2.3448 C   0  0  0  0  0  0  0  0  0  0  0  0
   -0.5445    1.9734   -1.3275 N   0  0  0  0  0  0  0  0  0  0  0  0
    0.1353    3.0432   -0.5590 C   0  0  0  0  0  0  0  0  0  0  0  0
    1.4174    2.5012    0.1185 C   0  0  0  0  0  0  0  0  0  0  0  0
   -1.3936    1.0920   -0.6346 C   0  0  0  0  0  0  0  0  0  0  0  0
   -1.4848    1.1947    0.6656 N   0  0  0  0  0  0  0  0  0  0  0  0
   -2.2829    0.3725    1.4789 C   0  0  0  0  0  0  0  0  0  0  0  0
   -3.0791    1.0154    2.4357 C   0  0  0  0  0  0  0  0  0  0  0  0
   -3.8346    0.2868    3.3573 C   0  0  0  0  0  0  0  0  0  0  0  0
   -3.7921   -1.1043    3.3431 C   0  0  0  0  0  0  0  0  0  0  0  0
   -2.9969   -1.7647    2.4062 C   0  0  0  0  0  0  0  0  0  0  0  0
   -2.2423   -1.0349    1.4751 C   0  0  0  0  0  0  0  0  0  0  0  0
   -1.3032   -1.9448    0.2531 S   0  0  0  0  0  0  0  0  0  0  0  0
   -2.1330   -1.2752   -1.1790 C   0  0  0  0  0  0  0  0  0  0  0  0
   -2.8058   -2.1561   -2.0368 C   0  0  0  0  0  0  0  0  0  0  0  0
   -3.5125   -1.6720   -3.1408 C   0  0  0  0  0  0  0  0  0  0  0  0
   -3.5524   -0.3039   -3.4004 C   0  0  0  0  0  0  0  0  0  0  0  0
   -2.8794    0.5820   -2.5593 C   0  0  0  0  0  0  0  0  0  0  0  0
   -2.1671    0.0984   -1.4510 C   0  0  0  0  0  0  0  0  0  0  0  0
    3.4162   -3.5732    2.9419 H   0  0  0  0  0  0  0  0  0  0  0  0
    4.8178   -1.9647    2.0853 H   0  0  0  0  0  0  0  0  0  0  0  0
    5.0762   -3.0095    0.6932 H   0  0  0  0  0  0  0  0  0  0  0  0
    2.6702   -2.9423    0.1182 H   0  0  0  0  0  0  0  0  0  0  0  0
    2.3015   -1.9456    1.5075 H   0  0  0  0  0  0  0  0  0  0  0  0
    2.6621    0.2877    1.4180 H   0  0  0  0  0  0  0  0  0  0  0  0
    4.4220    0.1282    1.2955 H   0  0  0  0  0  0  0  0  0  0  0  0
    4.2946    1.1538   -1.0367 H   0  0  0  0  0  0  0  0  0  0  0  0
    4.0397    2.2261    0.3218 H   0  0  0  0  0  0  0  0  0  0  0  0
    2.3285    0.4842   -2.4311 H   0  0  0  0  0  0  0  0  0  0  0  0
    1.3521    0.0221   -1.0236 H   0  0  0  0  0  0  0  0  0  0  0  0
    0.6650    2.2259   -3.0406 H   0  0  0  0  0  0  0  0  0  0  0  0
   -0.0774    0.6413   -2.9504 H   0  0  0  0  0  0  0  0  0  0  0  0
    0.4030    3.8548   -1.2469 H   0  0  0  0  0  0  0  0  0  0  0  0
   -0.5370    3.4853    0.1859 H   0  0  0  0  0  0  0  0  0  0  0  0
    1.1386    1.7738    0.8878 H   0  0  0  0  0  0  0  0  0  0  0  0
    1.9142    3.3370    0.6249 H   0  0  0  0  0  0  0  0  0  0  0  0
   -3.1004    2.1014    2.4617 H   0  0  0  0  0  0  0  0  0  0  0  0
   -4.4485    0.8076    4.0878 H   0  0  0  0  0  0  0  0  0  0  0  0
   -4.3793   -1.6748    4.0584 H   0  0  0  0  0  0  0  0  0  0  0  0
   -2.9782   -2.8521    2.3987 H   0  0  0  0  0  0  0  0  0  0  0  0
   -2.7946   -3.2274   -1.8443 H   0  0  0  0  0  0  0  0  0  0  0  0
   -4.0357   -2.3645   -3.7963 H   0  0  0  0  0  0  0  0  0  0  0  0
   -4.1022    0.0745   -4.2588 H   0  0  0  0  0  0  0  0  0  0  0  0
   -2.9013    1.6494   -2.7665 H   0  0  0  0  0  0  0  0  0  0  0  0
  1  2  1  0
  2  3  1  0
  3  4  1  0
  4  5  1  0
  5  6  1  0
  6  7  1  0
  7  8  1  0
  8  9  1  0
  9 10  1  0
 10 11  1  0
 11 12  1  0
 10 13  1  0
 13 14  2  0
 14 15  1  0
 15 16  2  0
 16 17  1  0
 17 18  2  0
 18 19  1  0
 19 20  2  0
 20 21  1  0
 21 22  1  0
 22 23  2  0
 23 24  1  0
 24 25  2  0
 25 26  1  0
 26 27  2  0
 12  7  1  0
 27 13  1  0
 20 15  1  0
 27 22  1  0
  1 28  1  0
  2 29  1  0
  2 30  1  0
  3 31  1  0
  3 32  1  0
  5 33  1  0
  5 34  1  0
  6 35  1  0
  6 36  1  0
  8 37  1  0
  8 38  1  0
  9 39  1  0
  9 40  1  0
 11 41  1  0
 11 42  1  0
 12 43  1  0
 12 44  1  0
 16 45  1  0
 17 46  1  0
 18 47  1  0
 19 48  1  0
 23 49  1  0
 24 50  1  0
 25 51  1  0
 26 52  1  0
M  END
