
     RDKit          3D

 61 65  0  0  0  0  0  0  0  0999 V2000
   -6.3716   -4.3077   -1.3360 O   0  0  0  0  0  0  0  0  0  0  0  0
   -5.8130   -3.1877   -0.7935 C   0  0  0  0  0  0  0  0  0  0  0  0
   -5.7748   -3.0897    0.5930 C   0  0  0  0  0  0  0  0  0  0  0  0
   -5.2093   -1.9625    1.1921 C   0  0  0  0  0  0  0  0  0  0  0  0
   -4.6853   -0.9348    0.3988 C   0  0  0  0  0  0  0  0  0  0  0  0
   -4.7340   -1.0433   -0.9982 C   0  0  0  0  0  0  0  0  0  0  0  0
   -5.2974   -2.1743   -1.5968 C   0  0  0  0  0  0  0  0  0  0  0  0
   -4.1066    0.2514    1.0190 C   0  0  0  0  0  0  0  0  0  0  0  0
   -2.8877    0.2072    1.6673 C   0  0  0  0  0  0  0  0  0  0  0  0
   -2.4408    1.7268    2.3025 S   0  0  0  0  0  0  0  0  0  0  0  0
   -3.8485    2.4922    1.6797 C   0  0  0  0  0  0  0  0  0  0  0  0
   -4.1917    3.8527    1.8020 C   0  0  0  0  0  0  0  0  0  0  0  0
   -5.3812    4.2947    1.2292 C   0  0  0  0  0  0  0  0  0  0  0  0
   -5.6877    5.6179    1.3640 O   0  0  0  0  0  0  0  0  0  0  0  0
   -6.2228    3.4277    0.5528 C   0  0  0  0  0  0  0  0  0  0  0  0
   -5.8772    2.0769    0.4394 C   0  0  0  0  0  0  0  0  0  0  0  0
   -4.6690    1.5840    1.0028 C   0  0  0  0  0  0  0  0  0  0  0  0
   -2.0132   -0.9261    1.9013 C   0  0  0  0  0  0  0  0  0  0  0  0
   -2.2904   -1.8217    2.6970 O   0  0  0  0  0  0  0  0  0  0  0  0
   -0.7204   -1.0136    1.1499 C   0  0  0  0  0  0  0  0  0  0  0  0
   -0.4600   -0.2421    0.0113 C   0  0  0  0  0  0  0  0  0  0  0  0
    0.7707   -0.3559   -0.6443 C   0  0  0  0  0  0  0  0  0  0  0  0
    1.7523   -1.2353   -0.1806 C   0  0  0  0  0  0  0  0  0  0  0  0
    2.9066   -1.2327   -0.9114 O   0  0  0  0  0  0  0  0  0  0  0  0
    3.9989   -2.0079   -0.4164 C   0  0  0  0  0  0  0  0  0  0  0  0
    5.2525   -1.7741   -1.2861 C   0  0  0  0  0  0  0  0  0  0  0  0
    5.9764   -0.5010   -1.1400 N   0  0  0  0  0  0  0  0  0  0  0  0
    6.3666   -0.1801    0.2269 C   0  0  0  0  0  0  0  0  0  0  0  0
    7.4496    0.9045    0.2213 C   0  0  0  0  0  0  0  0  0  0  0  0
    7.2198    1.9839   -0.8396 C   0  0  0  0  0  0  0  0  0  0  0  0
    5.7716    1.9988   -1.3054 C   0  0  0  0  0  0  0  0  0  0  0  0
    5.3357    0.6239   -1.8322 C   0  0  0  0  0  0  0  0  0  0  0  0
    1.4878   -2.0225    0.9390 C   0  0  0  0  0  0  0  0  0  0  0  0
    0.2572   -1.9127    1.5997 C   0  0  0  0  0  0  0  0  0  0  0  0
   -6.2063   -4.3031   -2.2926 H   0  0  0  0  0  0  0  0  0  0  0  0
   -6.1763   -3.8902    1.2084 H   0  0  0  0  0  0  0  0  0  0  0  0
   -5.1735   -1.8969    2.2782 H   0  0  0  0  0  0  0  0  0  0  0  0
   -4.3345   -0.2504   -1.6269 H   0  0  0  0  0  0  0  0  0  0  0  0
   -5.3295   -2.2443   -2.6802 H   0  0  0  0  0  0  0  0  0  0  0  0
   -3.5463    4.5462    2.3354 H   0  0  0  0  0  0  0  0  0  0  0  0
   -6.5341    5.7904    0.9186 H   0  0  0  0  0  0  0  0  0  0  0  0
   -7.1530    3.7717    0.1109 H   0  0  0  0  0  0  0  0  0  0  0  0
   -6.5471    1.3961   -0.0822 H   0  0  0  0  0  0  0  0  0  0  0  0
   -1.1951    0.4506   -0.3894 H   0  0  0  0  0  0  0  0  0  0  0  0
    0.9691    0.2508   -1.5254 H   0  0  0  0  0  0  0  0  0  0  0  0
    4.2114   -1.7672    0.6316 H   0  0  0  0  0  0  0  0  0  0  0  0
    3.7350   -3.0712   -0.4874 H   0  0  0  0  0  0  0  0  0  0  0  0
    5.9679   -2.5727   -1.0512 H   0  0  0  0  0  0  0  0  0  0  0  0
    4.9895   -1.9123   -2.3431 H   0  0  0  0  0  0  0  0  0  0  0  0
    6.7742   -1.0625    0.7348 H   0  0  0  0  0  0  0  0  0  0  0  0
    5.5040    0.1576    0.8155 H   0  0  0  0  0  0  0  0  0  0  0  0
    7.4882    1.3671    1.2147 H   0  0  0  0  0  0  0  0  0  0  0  0
    8.4337    0.4503    0.0532 H   0  0  0  0  0  0  0  0  0  0  0  0
    7.8719    1.7886   -1.7009 H   0  0  0  0  0  0  0  0  0  0  0  0
    7.5078    2.9650   -0.4456 H   0  0  0  0  0  0  0  0  0  0  0  0
    5.6328    2.7549   -2.0864 H   0  0  0  0  0  0  0  0  0  0  0  0
    5.1284    2.2895   -0.4646 H   0  0  0  0  0  0  0  0  0  0  0  0
    4.2440    0.5861   -1.7736 H   0  0  0  0  0  0  0  0  0  0  0  0
    5.5950    0.5546   -2.8961 H   0  0  0  0  0  0  0  0  0  0  0  0
    2.2119   -2.7327    1.3259 H   0  0  0  0  0  0  0  0  0  0  0  0
    0.0680   -2.5326    2.4748 H   0  0  0  0  0  0  0  0  0  0  0  0
  1  2  1  0
  2  3  1  0
  3  4  2  0
  4  5  1  0
  5  6  2  0
  6  7  1  0
  5  8  1  0
  8  9  2  0
  9 10  1  0
 10 11  1  0
 11 12  2  0
 12 13  1  0
 13 14  1  0
 13 15  2  0
 15 16  1  0
 16 17  2  0
  9 18  1  0
 18 19  2  0
 18 20  1  0
 20 21  1  0
 21 22  2  0
 22 23  1  0
 23 24  1  0
 24 25  1  0
 25 26  1  0
 26 27  1  0
 27 28  1  0
 28 29  1  0
 29 30  1  0
 30 31  1  0
 31 32  1  0
 23 33  2  0
 33 34  1  0
  7  2  2  0
 17  8  1  0
 34 20  2  0
 17 11  1  0
 32 27  1  0
  1 35  1  0
  3 36  1  0
  4 37  1  0
  6 38  1  0
  7 39  1  0
 12 40  1  0
 14 41  1  0
 15 42  1  0
 16 43  1  0
 21 44  1  0
 22 45  1  0
 25 46  1  0
 25 47  1  0
 26 48  1  0
 26 49  1  0
 28 50  1  0
 28 51  1  0
 29 52  1  0
 29 53  1  0
 30 54  1  0
 30 55  1  0
 31 56  1  0
 31 57  1  0
 32 58  1  0
 32 59  1  0
 33 60  1  0
 34 61  1  0
M  END
