
     RDKit          3D

 62 64  0  0  0  0  0  0  0  0999 V2000
    2.0186    3.6092    3.4060 C   0  0  0  0  0  0  0  0  0  0  0  0
    0.7754    3.3694    2.5687 C   0  0  0  0  0  0  0  0  0  0  0  0
    0.7529    2.0177    2.0922 O   0  0  0  0  0  0  0  0  0  0  0  0
    1.4249    1.7842    0.9251 C   0  0  0  0  0  0  0  0  0  0  0  0
    2.0316    2.6320    0.2840 O   0  0  0  0  0  0  0  0  0  0  0  0
    1.3117    0.3017    0.5455 C   0  0  2  0  0  0  0  0  0  0  0  0
    2.4514   -0.1915   -0.3616 C   0  0  0  0  0  0  0  0  0  0  0  0
    3.8070   -0.2094    0.3603 C   0  0  0  0  0  0  0  0  0  0  0  0
    4.8322   -0.9710   -0.4446 C   0  0  0  0  0  0  0  0  0  0  0  0
    5.4773   -0.3635   -1.5307 C   0  0  0  0  0  0  0  0  0  0  0  0
    6.3882   -1.0846   -2.3046 C   0  0  0  0  0  0  0  0  0  0  0  0
    6.6611   -2.4170   -1.9998 C   0  0  0  0  0  0  0  0  0  0  0  0
    6.0250   -3.0309   -0.9231 C   0  0  0  0  0  0  0  0  0  0  0  0
    5.1127   -2.3129   -0.1496 C   0  0  0  0  0  0  0  0  0  0  0  0
   -0.0258   -0.0579    0.0345 N   0  0  0  0  0  0  0  0  0  0  0  0
   -0.6935    0.7940   -0.9632 C   0  0  1  0  0  0  0  0  0  0  0  0
    0.1257    1.1085   -2.2146 C   0  0  0  0  0  0  0  0  0  0  0  0
   -1.9803    0.0249   -1.3947 C   0  0  0  0  0  0  0  0  0  0  0  0
   -2.0030   -0.6262   -2.4426 O   0  0  0  0  0  0  0  0  0  0  0  0
   -3.0584    0.0061   -0.5293 N   0  0  0  0  0  0  0  0  0  0  0  0
   -4.2585   -0.7476   -0.8645 C   0  0  1  0  0  0  0  0  0  0  0  0
   -4.0487   -2.2697   -0.8425 C   0  0  0  0  0  0  0  0  0  0  0  0
   -5.1221   -2.8155    0.0909 C   0  0  0  0  0  0  0  0  0  0  0  0
   -5.3371   -1.6981    1.1006 C   0  0  0  0  0  0  0  0  0  0  0  0
   -5.2750   -0.4371    0.2420 C   0  0  1  0  0  0  0  0  0  0  0  0
   -4.7458    0.8197    0.9264 C   0  0  0  0  0  0  0  0  0  0  0  0
   -3.2315    0.8055    0.6827 C   0  0  1  0  0  0  0  0  0  0  0  0
   -2.4922    0.2772    1.9159 C   0  0  0  0  0  0  0  0  0  0  0  0
   -2.2238   -0.8784    2.2062 O   0  0  0  0  0  0  0  0  0  0  0  0
   -2.1706    1.2817    2.7666 O   0  0  0  0  0  0  0  0  0  0  0  0
    2.9291    3.4205    2.8273 H   0  0  0  0  0  0  0  0  0  0  0  0
    2.0369    2.9265    4.2636 H   0  0  0  0  0  0  0  0  0  0  0  0
    2.0439    4.6394    3.7757 H   0  0  0  0  0  0  0  0  0  0  0  0
   -0.1163    3.5041    3.1890 H   0  0  0  0  0  0  0  0  0  0  0  0
    0.7055    4.0822    1.7401 H   0  0  0  0  0  0  0  0  0  0  0  0
    1.4175   -0.2550    1.4883 H   0  0  0  0  0  0  0  0  0  0  0  0
    2.2189   -1.2094   -0.7022 H   0  0  0  0  0  0  0  0  0  0  0  0
    2.5443    0.4288   -1.2591 H   0  0  0  0  0  0  0  0  0  0  0  0
    4.1689    0.8123    0.5355 H   0  0  0  0  0  0  0  0  0  0  0  0
    3.7075   -0.6740    1.3520 H   0  0  0  0  0  0  0  0  0  0  0  0
    5.2660    0.6744   -1.7817 H   0  0  0  0  0  0  0  0  0  0  0  0
    6.8810   -0.6102   -3.1476 H   0  0  0  0  0  0  0  0  0  0  0  0
    7.3672   -2.9792   -2.6057 H   0  0  0  0  0  0  0  0  0  0  0  0
    6.2285   -4.0713   -0.6885 H   0  0  0  0  0  0  0  0  0  0  0  0
    4.6153   -2.8165    0.6780 H   0  0  0  0  0  0  0  0  0  0  0  0
   -0.0060   -1.0207   -0.3128 H   0  0  0  0  0  0  0  0  0  0  0  0
   -0.9913    1.7415   -0.5083 H   0  0  0  0  0  0  0  0  0  0  0  0
    0.9406    1.8050   -2.0015 H   0  0  0  0  0  0  0  0  0  0  0  0
    0.5486    0.2006   -2.6617 H   0  0  0  0  0  0  0  0  0  0  0  0
   -0.5031    1.5827   -2.9787 H   0  0  0  0  0  0  0  0  0  0  0  0
   -4.6206   -0.4042   -1.8429 H   0  0  0  0  0  0  0  0  0  0  0  0
   -4.1466   -2.6963   -1.8490 H   0  0  0  0  0  0  0  0  0  0  0  0
   -3.0530   -2.5368   -0.4630 H   0  0  0  0  0  0  0  0  0  0  0  0
   -6.0488   -2.9991   -0.4655 H   0  0  0  0  0  0  0  0  0  0  0  0
   -4.8193   -3.7498    0.5702 H   0  0  0  0  0  0  0  0  0  0  0  0
   -4.5589   -1.7150    1.8660 H   0  0  0  0  0  0  0  0  0  0  0  0
   -6.3035   -1.7952    1.6113 H   0  0  0  0  0  0  0  0  0  0  0  0
   -6.2706   -0.2544   -0.1850 H   0  0  0  0  0  0  0  0  0  0  0  0
   -5.1527    1.6877    0.3910 H   0  0  0  0  0  0  0  0  0  0  0  0
   -5.0397    0.9017    1.9771 H   0  0  0  0  0  0  0  0  0  0  0  0
   -2.8805    1.8260    0.4829 H   0  0  0  0  0  0  0  0  0  0  0  0
   -1.6383    0.8331    3.4587 H   0  0  0  0  0  0  0  0  0  0  0  0
  1  2  1  0
  2  3  1  0
  3  4  1  0
  4  5  2  0
  4  6  1  0
  6  7  1  0
  7  8  1  0
  8  9  1  0
  9 10  2  0
 10 11  1  0
 11 12  2  0
 12 13  1  0
 13 14  2  0
  6 15  1  0
 15 16  1  0
 16 17  1  0
 16 18  1  0
 18 19  2  0
 18 20  1  0
 20 21  1  0
 21 22  1  0
 22 23  1  0
 23 24  1  0
 24 25  1  0
 25 26  1  0
 26 27  1  0
 27 28  1  0
 28 29  2  0
 28 30  1  0
 14  9  1  0
 27 20  1  0
 25 21  1  0
  1 31  1  0
  1 32  1  0
  1 33  1  0
  2 34  1  0
  2 35  1  0
  6 36  1  1
  7 37  1  0
  7 38  1  0
  8 39  1  0
  8 40  1  0
 10 41  1  0
 11 42  1  0
 12 43  1  0
 13 44  1  0
 14 45  1  0
 15 46  1  0
 16 47  1  1
 17 48  1  0
 17 49  1  0
 17 50  1  0
 21 51  1  6
 22 52  1  0
 22 53  1  0
 23 54  1  0
 23 55  1  0
 24 56  1  0
 24 57  1  0
 25 58  1  6
 26 59  1  0
 26 60  1  0
 27 61  1  6
 30 62  1  0
M  END
