
     RDKit          3D

 57 61  0  0  0  0  0  0  0  0999 V2000
   -1.1399    0.5777    2.3441 C   0  0  0  0  0  0  0  0  0  0  0  0
   -2.1172    0.5088    1.1973 C   0  0  0  0  0  0  0  0  0  0  0  0
   -2.1840   -0.5312    0.3434 C   0  0  0  0  0  0  0  0  0  0  0  0
   -1.3639   -1.7964    0.4110 C   0  0  0  0  0  0  0  0  0  0  0  0
   -0.1196   -1.7048   -0.4896 C   0  0  0  0  0  0  0  0  0  0  0  0
    0.7528   -2.8910   -0.4069 N   0  0  0  0  0  0  0  0  0  0  0  0
    1.4759   -3.0253    0.8650 C   0  0  0  0  0  0  0  0  0  0  0  0
    2.5880   -1.9934    1.0574 C   0  0  0  0  0  0  0  0  0  0  0  0
    3.5614   -2.0003   -0.1296 C   0  0  0  0  0  0  0  0  0  0  0  0
    2.8086   -1.9112   -1.4643 C   0  0  0  0  0  0  0  0  0  0  0  0
    1.6933   -2.9552   -1.5366 C   0  0  0  0  0  0  0  0  0  0  0  0
    4.6155   -0.9391   -0.0014 C   0  0  0  0  0  0  0  0  0  0  0  0
    5.9026   -1.3041    0.0977 N   0  0  0  0  0  0  0  0  0  0  0  0
    6.6259   -0.1301    0.2038 O   0  0  0  0  0  0  0  0  0  0  0  0
    5.7800    0.9314    0.1693 C   0  0  0  0  0  0  0  0  0  0  0  0
    6.1459    2.2705    0.2518 C   0  0  0  0  0  0  0  0  0  0  0  0
    5.0969    3.1845    0.1948 C   0  0  0  0  0  0  0  0  0  0  0  0
    5.3734    4.4935    0.2687 F   0  0  0  0  0  0  0  0  0  0  0  0
    3.7681    2.7834    0.0632 C   0  0  0  0  0  0  0  0  0  0  0  0
    3.4367    1.4232   -0.0174 C   0  0  0  0  0  0  0  0  0  0  0  0
    4.4777    0.4771    0.0383 C   0  0  0  0  0  0  0  0  0  0  0  0
   -3.1736   -0.4445   -0.7668 C   0  0  0  0  0  0  0  0  0  0  0  0
   -3.1980   -1.2993   -1.6491 O   0  0  0  0  0  0  0  0  0  0  0  0
   -4.0134    0.6449   -0.7334 N   0  0  0  0  0  0  0  0  0  0  0  0
   -5.0050    0.8325   -1.7798 C   0  0  0  0  0  0  0  0  0  0  0  0
   -6.3298    1.3283   -1.2062 C   0  0  0  0  0  0  0  0  0  0  0  0
   -6.1590    2.4137   -0.1386 C   0  0  0  0  0  0  0  0  0  0  0  0
   -4.7128    2.8585    0.0354 C   0  0  0  0  0  0  0  0  0  0  0  0
   -3.8107    1.6535    0.1766 C   0  0  0  0  0  0  0  0  0  0  0  0
   -2.9087    1.6271    1.1001 N   0  0  0  0  0  0  0  0  0  0  0  0
   -0.6876    1.5748    2.3955 H   0  0  0  0  0  0  0  0  0  0  0  0
   -0.3136   -0.1319    2.2535 H   0  0  0  0  0  0  0  0  0  0  0  0
   -1.6575    0.3882    3.2900 H   0  0  0  0  0  0  0  0  0  0  0  0
   -1.0882   -1.9972    1.4506 H   0  0  0  0  0  0  0  0  0  0  0  0
   -1.9747   -2.6587    0.1137 H   0  0  0  0  0  0  0  0  0  0  0  0
    0.4366   -0.7864   -0.2674 H   0  0  0  0  0  0  0  0  0  0  0  0
   -0.4740   -1.6014   -1.5239 H   0  0  0  0  0  0  0  0  0  0  0  0
    0.7902   -2.9891    1.7175 H   0  0  0  0  0  0  0  0  0  0  0  0
    1.9166   -4.0306    0.9038 H   0  0  0  0  0  0  0  0  0  0  0  0
    3.1329   -2.2192    1.9831 H   0  0  0  0  0  0  0  0  0  0  0  0
    2.1489   -0.9997    1.2017 H   0  0  0  0  0  0  0  0  0  0  0  0
    4.0678   -2.9777   -0.1172 H   0  0  0  0  0  0  0  0  0  0  0  0
    2.3862   -0.9102   -1.6110 H   0  0  0  0  0  0  0  0  0  0  0  0
    3.5072   -2.0706   -2.2955 H   0  0  0  0  0  0  0  0  0  0  0  0
    1.1547   -2.8575   -2.4874 H   0  0  0  0  0  0  0  0  0  0  0  0
    2.1407   -3.9578   -1.5613 H   0  0  0  0  0  0  0  0  0  0  0  0
    7.1760    2.5837    0.3539 H   0  0  0  0  0  0  0  0  0  0  0  0
    2.9882    3.5395    0.0234 H   0  0  0  0  0  0  0  0  0  0  0  0
    2.3994    1.1199   -0.1206 H   0  0  0  0  0  0  0  0  0  0  0  0
   -4.6017    1.5738   -2.4809 H   0  0  0  0  0  0  0  0  0  0  0  0
   -5.1670   -0.0927   -2.3427 H   0  0  0  0  0  0  0  0  0  0  0  0
   -6.8662    0.4829   -0.7566 H   0  0  0  0  0  0  0  0  0  0  0  0
   -6.9658    1.6955   -2.0200 H   0  0  0  0  0  0  0  0  0  0  0  0
   -6.7880    3.2781   -0.3805 H   0  0  0  0  0  0  0  0  0  0  0  0
   -6.5295    2.0227    0.8179 H   0  0  0  0  0  0  0  0  0  0  0  0
   -4.3792    3.4401   -0.8318 H   0  0  0  0  0  0  0  0  0  0  0  0
   -4.6194    3.4988    0.9192 H   0  0  0  0  0  0  0  0  0  0  0  0
  1  2  1  0
  2  3  2  0
  3  4  1  0
  4  5  1  0
  5  6  1  0
  6  7  1  0
  7  8  1  0
  8  9  1  0
  9 10  1  0
 10 11  1  0
  9 12  1  0
 12 13  2  0
 13 14  1  0
 14 15  1  0
 15 16  2  0
 16 17  1  0
 17 18  1  0
 17 19  2  0
 19 20  1  0
 20 21  2  0
  3 22  1  0
 22 23  2  0
 22 24  1  0
 24 25  1  0
 25 26  1  0
 26 27  1  0
 27 28  1  0
 28 29  1  0
 29 30  2  0
 30  2  1  0
 11  6  1  0
 21 12  1  0
 29 24  1  0
 21 15  1  0
  1 31  1  0
  1 32  1  0
  1 33  1  0
  4 34  1  0
  4 35  1  0
  5 36  1  0
  5 37  1  0
  7 38  1  0
  7 39  1  0
  8 40  1  0
  8 41  1  0
  9 42  1  0
 10 43  1  0
 10 44  1  0
 11 45  1  0
 11 46  1  0
 16 47  1  0
 19 48  1  0
 20 49  1  0
 25 50  1  0
 25 51  1  0
 26 52  1  0
 26 53  1  0
 27 54  1  0
 27 55  1  0
 28 56  1  0
 28 57  1  0
M  END
