
     RDKit          3D

 47 50  0  0  0  0  0  0  0  0999 V2000
    8.2241   -0.4581    4.3141 Cl  0  0  0  0  0  0  0  0  0  0  0  0
    7.4742   -0.3615    2.7729 C   0  0  0  0  0  0  0  0  0  0  0  0
    7.9825   -0.8210    1.5879 C   0  0  0  0  0  0  0  0  0  0  0  0
    7.0795   -0.5697    0.5085 C   0  0  0  0  0  0  0  0  0  0  0  0
    5.9223    0.0763    0.9195 C   0  0  0  0  0  0  0  0  0  0  0  0
    5.9532    0.3544    2.6207 S   0  0  0  0  0  0  0  0  0  0  0  0
    4.7559    0.5151    0.1634 C   0  0  0  0  0  0  0  0  0  0  0  0
    3.7275    0.9584    0.6709 O   0  0  0  0  0  0  0  0  0  0  0  0
    4.8577    0.4000   -1.2106 N   0  0  0  0  0  0  0  0  0  0  0  0
    3.8199    0.8849   -2.1062 C   0  0  0  0  0  0  0  0  0  0  0  0
    2.5732   -0.0029   -2.1498 C   0  0  0  0  0  0  0  0  0  0  0  0
    1.5105    0.3457   -1.1317 C   0  0  0  0  0  0  0  0  0  0  0  0
    0.2879    0.1334   -1.8504 N   0  0  0  0  0  0  0  0  0  0  0  0
   -0.9864    0.1377   -1.2262 C   0  0  0  0  0  0  0  0  0  0  0  0
   -2.1656   -0.0806   -1.9398 C   0  0  0  0  0  0  0  0  0  0  0  0
   -3.4194   -0.0778   -1.3029 C   0  0  0  0  0  0  0  0  0  0  0  0
   -3.5460    0.1433    0.0718 C   0  0  0  0  0  0  0  0  0  0  0  0
   -2.3604    0.3559    0.7872 C   0  0  0  0  0  0  0  0  0  0  0  0
   -1.1072    0.3560    0.1513 C   0  0  0  0  0  0  0  0  0  0  0  0
   -4.8253    0.1229    0.7309 N   0  0  0  0  0  0  0  0  0  0  0  0
   -4.8591   -0.0156    2.1915 C   0  0  0  0  0  0  0  0  0  0  0  0
   -6.1717   -0.6012    2.6951 C   0  0  0  0  0  0  0  0  0  0  0  0
   -7.2347    0.2586    2.3054 O   0  0  0  0  0  0  0  0  0  0  0  0
   -7.3142    0.3140    0.8918 C   0  0  0  0  0  0  0  0  0  0  0  0
   -6.0193    0.4478    0.0599 C   0  0  0  0  0  0  0  0  0  0  0  0
   -6.1100    0.7912   -1.1199 O   0  0  0  0  0  0  0  0  0  0  0  0
    0.5586    0.0934   -3.2095 C   0  0  0  0  0  0  0  0  0  0  0  0
   -0.2163    0.0277   -4.1493 O   0  0  0  0  0  0  0  0  0  0  0  0
    1.9148    0.1628   -3.4136 O   0  0  0  0  0  0  0  0  0  0  0  0
    8.9426   -1.3129    1.4920 H   0  0  0  0  0  0  0  0  0  0  0  0
    7.2867   -0.8657   -0.5119 H   0  0  0  0  0  0  0  0  0  0  0  0
    5.7441    0.1452   -1.6218 H   0  0  0  0  0  0  0  0  0  0  0  0
    3.5675    1.9155   -1.8309 H   0  0  0  0  0  0  0  0  0  0  0  0
    4.2745    0.9305   -3.1029 H   0  0  0  0  0  0  0  0  0  0  0  0
    2.8557   -1.0609   -2.0774 H   0  0  0  0  0  0  0  0  0  0  0  0
    1.5473    1.3981   -0.8293 H   0  0  0  0  0  0  0  0  0  0  0  0
    1.5825   -0.3042   -0.2541 H   0  0  0  0  0  0  0  0  0  0  0  0
   -2.1608   -0.2709   -3.0093 H   0  0  0  0  0  0  0  0  0  0  0  0
   -4.2850   -0.2849   -1.9268 H   0  0  0  0  0  0  0  0  0  0  0  0
   -2.3681    0.5653    1.8527 H   0  0  0  0  0  0  0  0  0  0  0  0
   -0.2373    0.5493    0.7733 H   0  0  0  0  0  0  0  0  0  0  0  0
   -4.0534   -0.6782    2.5247 H   0  0  0  0  0  0  0  0  0  0  0  0
   -4.7142    0.9871    2.6112 H   0  0  0  0  0  0  0  0  0  0  0  0
   -6.3455   -1.6107    2.3034 H   0  0  0  0  0  0  0  0  0  0  0  0
   -6.1646   -0.6579    3.7879 H   0  0  0  0  0  0  0  0  0  0  0  0
   -7.8291   -0.5887    0.5416 H   0  0  0  0  0  0  0  0  0  0  0  0
   -7.9491    1.1716    0.6445 H   0  0  0  0  0  0  0  0  0  0  0  0
  1  2  1  0
  2  3  2  0
  3  4  1  0
  4  5  2  0
  5  6  1  0
  5  7  1  0
  7  8  2  0
  7  9  1  0
  9 10  1  0
 10 11  1  0
 11 12  1  0
 12 13  1  0
 13 14  1  0
 14 15  1  0
 15 16  2  0
 16 17  1  0
 17 18  2  0
 18 19  1  0
 17 20  1  0
 20 21  1  0
 21 22  1  0
 22 23  1  0
 23 24  1  0
 24 25  1  0
 25 26  2  0
 13 27  1  0
 27 28  2  0
 27 29  1  0
  6  2  1  0
 29 11  1  0
 19 14  2  0
 25 20  1  0
  3 30  1  0
  4 31  1  0
  9 32  1  0
 10 33  1  0
 10 34  1  0
 11 35  1  0
 12 36  1  0
 12 37  1  0
 15 38  1  0
 16 39  1  0
 18 40  1  0
 19 41  1  0
 21 42  1  0
 21 43  1  0
 22 44  1  0
 22 45  1  0
 24 46  1  0
 24 47  1  0
M  END
