
     RDKit          3D

 61 62  0  0  0  0  0  0  0  0999 V2000
   -1.5144   -0.5257   -3.3122 C   0  0  0  0  0  0  0  0  0  0  0  0
   -0.8321    0.5197   -2.4293 C   0  0  0  0  0  0  0  0  0  0  0  0
   -0.9114    1.9054   -3.0786 C   0  0  0  0  0  0  0  0  0  0  0  0
   -1.4499    0.5103   -1.0377 C   0  0  0  0  0  0  0  0  0  0  0  0
   -2.6179    1.1857   -0.9086 N   0  0  0  0  0  0  0  0  0  0  0  0
   -3.1997    1.1746    0.2922 C   0  0  0  0  0  0  0  0  0  0  0  0
   -4.4187    1.8852    0.4066 N   0  0  0  0  0  0  0  0  0  0  0  0
   -4.8140    2.2398    1.7838 C   0  0  0  0  0  0  0  0  0  0  0  0
   -5.6561    1.1941   -0.5161 S   0  0  0  0  0  0  0  0  0  0  0  0
   -5.3065    1.7823   -2.1637 C   0  0  0  0  0  0  0  0  0  0  0  0
   -6.9002    1.8317   -0.1245 O   0  0  0  0  0  0  0  0  0  0  0  0
   -5.5468   -0.2496   -0.4985 O   0  0  0  0  0  0  0  0  0  0  0  0
   -2.7261    0.5729    1.3828 N   0  0  0  0  0  0  0  0  0  0  0  0
   -1.5787   -0.1257    1.2346 C   0  0  0  0  0  0  0  0  0  0  0  0
   -1.1526   -0.8143    2.4666 C   0  0  0  0  0  0  0  0  0  0  0  0
   -0.8352   -0.0756    3.6214 C   0  0  0  0  0  0  0  0  0  0  0  0
   -0.4269   -0.7171    4.7932 C   0  0  0  0  0  0  0  0  0  0  0  0
   -0.3427   -2.1028    4.8207 C   0  0  0  0  0  0  0  0  0  0  0  0
    0.0496   -2.7184    5.9433 F   0  0  0  0  0  0  0  0  0  0  0  0
   -0.6644   -2.8597    3.7020 C   0  0  0  0  0  0  0  0  0  0  0  0
   -1.0727   -2.2180    2.5302 C   0  0  0  0  0  0  0  0  0  0  0  0
   -0.8764   -0.1883    0.0263 C   0  0  0  0  0  0  0  0  0  0  0  0
    0.3836   -0.9293   -0.1221 C   0  0  0  0  0  0  0  0  0  0  0  0
    1.5340   -0.5079    0.4302 C   0  0  0  0  0  0  0  0  0  0  0  0
    2.8705   -1.1914    0.3227 C   0  0  1  0  0  0  0  0  0  0  0  0
    2.7146   -2.5118   -0.1945 O   0  0  0  0  0  0  0  0  0  0  0  0
    3.8200   -0.3948   -0.5824 C   0  0  0  0  0  0  0  0  0  0  0  0
    5.1704   -1.1076   -0.7672 C   0  0  1  0  0  0  0  0  0  0  0  0
    4.9911   -2.2479   -1.6156 O   0  0  0  0  0  0  0  0  0  0  0  0
    6.2166   -0.2105   -1.4261 C   0  0  0  0  0  0  0  0  0  0  0  0
    6.7802    0.7876   -0.4564 C   0  0  0  0  0  0  0  0  0  0  0  0
    6.4452    0.9633    0.7024 O   0  0  0  0  0  0  0  0  0  0  0  0
    7.7509    1.5412   -1.0105 O   0  0  0  0  0  0  0  0  0  0  0  0
   -1.4242   -1.5274   -2.8783 H   0  0  0  0  0  0  0  0  0  0  0  0
   -2.5822   -0.3140   -3.4364 H   0  0  0  0  0  0  0  0  0  0  0  0
   -1.0579   -0.5502   -4.3074 H   0  0  0  0  0  0  0  0  0  0  0  0
    0.2342    0.2748   -2.3678 H   0  0  0  0  0  0  0  0  0  0  0  0
   -0.3931    1.9069   -4.0437 H   0  0  0  0  0  0  0  0  0  0  0  0
   -1.9466    2.2163   -3.2581 H   0  0  0  0  0  0  0  0  0  0  0  0
   -0.4392    2.6620   -2.4425 H   0  0  0  0  0  0  0  0  0  0  0  0
   -5.6189    2.9818    1.7681 H   0  0  0  0  0  0  0  0  0  0  0  0
   -3.9781    2.7099    2.3140 H   0  0  0  0  0  0  0  0  0  0  0  0
   -5.1440    1.3614    2.3473 H   0  0  0  0  0  0  0  0  0  0  0  0
   -6.1956    1.6020   -2.7722 H   0  0  0  0  0  0  0  0  0  0  0  0
   -4.4695    1.2325   -2.5913 H   0  0  0  0  0  0  0  0  0  0  0  0
   -5.1044    2.8538   -2.1224 H   0  0  0  0  0  0  0  0  0  0  0  0
   -0.9108    1.0101    3.6082 H   0  0  0  0  0  0  0  0  0  0  0  0
   -0.1819   -0.1454    5.6822 H   0  0  0  0  0  0  0  0  0  0  0  0
   -0.6064   -3.9422    3.7516 H   0  0  0  0  0  0  0  0  0  0  0  0
   -1.3452   -2.8209    1.6663 H   0  0  0  0  0  0  0  0  0  0  0  0
    0.3399   -1.8260   -0.7353 H   0  0  0  0  0  0  0  0  0  0  0  0
    1.5428    0.4143    1.0104 H   0  0  0  0  0  0  0  0  0  0  0  0
    3.3051   -1.2826    1.3250 H   0  0  0  0  0  0  0  0  0  0  0  0
    2.1746   -2.9946    0.4577 H   0  0  0  0  0  0  0  0  0  0  0  0
    3.3548   -0.2727   -1.5699 H   0  0  0  0  0  0  0  0  0  0  0  0
    3.9626    0.6045   -0.1565 H   0  0  0  0  0  0  0  0  0  0  0  0
    5.5415   -1.4756    0.1968 H   0  0  0  0  0  0  0  0  0  0  0  0
    4.1874   -2.7085   -1.2909 H   0  0  0  0  0  0  0  0  0  0  0  0
    7.0448   -0.8261   -1.7974 H   0  0  0  0  0  0  0  0  0  0  0  0
    5.7845    0.3201   -2.2821 H   0  0  0  0  0  0  0  0  0  0  0  0
    8.0428    2.1382   -0.2905 H   0  0  0  0  0  0  0  0  0  0  0  0
  1  2  1  0
  2  3  1  0
  2  4  1  0
  4  5  2  0
  5  6  1  0
  6  7  1  0
  7  8  1  0
  7  9  1  0
  9 10  1  0
  9 11  2  0
  9 12  2  0
  6 13  2  0
 13 14  1  0
 14 15  1  0
 15 16  1  0
 16 17  2  0
 17 18  1  0
 18 19  1  0
 18 20  2  0
 20 21  1  0
 14 22  2  0
 22 23  1  0
 23 24  2  0
 24 25  1  0
 25 26  1  0
 25 27  1  0
 27 28  1  0
 28 29  1  0
 28 30  1  0
 30 31  1  0
 31 32  2  0
 31 33  1  0
 22  4  1  0
 21 15  2  0
  1 34  1  0
  1 35  1  0
  1 36  1  0
  2 37  1  0
  3 38  1  0
  3 39  1  0
  3 40  1  0
  8 41  1  0
  8 42  1  0
  8 43  1  0
 10 44  1  0
 10 45  1  0
 10 46  1  0
 16 47  1  0
 17 48  1  0
 20 49  1  0
 21 50  1  0
 23 51  1  0
 24 52  1  0
 25 53  1  1
 26 54  1  0
 27 55  1  0
 27 56  1  0
 28 57  1  1
 29 58  1  0
 30 59  1  0
 30 60  1  0
 33 61  1  0
M  END
