
     RDKit          3D

 37 39  0  0  0  0  0  0  0  0999 V2000
    2.4452    0.7762   -2.1209 C   0  0  0  0  0  0  0  0  0  0  0  0
    2.9980    1.1077   -0.8144 N   0  0  0  0  0  0  0  0  0  0  0  0
    2.0684    0.9360    0.3172 C   0  0  0  0  0  0  0  0  0  0  0  0
    0.8816    1.9127    0.2379 C   0  0  0  0  0  0  0  0  0  0  0  0
   -0.1181    1.6346    1.3555 C   0  0  0  0  0  0  0  0  0  0  0  0
   -0.7108    0.2178    1.2425 C   0  0  0  0  0  0  0  0  0  0  0  0
   -1.8384    0.1686    0.2103 C   0  0  0  0  0  0  0  0  0  0  0  0
   -1.6283   -0.2181   -1.1222 C   0  0  0  0  0  0  0  0  0  0  0  0
   -2.6842   -0.2340   -2.0382 C   0  0  0  0  0  0  0  0  0  0  0  0
   -3.9686    0.1417   -1.6401 C   0  0  0  0  0  0  0  0  0  0  0  0
   -5.2242    0.0996   -2.8258 Cl  0  0  0  0  0  0  0  0  0  0  0  0
   -4.1954    0.5355   -0.3189 C   0  0  0  0  0  0  0  0  0  0  0  0
   -5.7540    1.0192    0.2500 Cl  0  0  0  0  0  0  0  0  0  0  0  0
   -3.1361    0.5495    0.5966 C   0  0  0  0  0  0  0  0  0  0  0  0
    0.3673   -0.8389    1.0431 C   0  0  0  0  0  0  0  0  0  0  0  0
    0.0537   -2.1838    1.3203 C   0  0  0  0  0  0  0  0  0  0  0  0
    1.0070   -3.1882    1.1659 C   0  0  0  0  0  0  0  0  0  0  0  0
    2.2895   -2.8641    0.7406 C   0  0  0  0  0  0  0  0  0  0  0  0
    2.6149   -1.5369    0.4615 C   0  0  0  0  0  0  0  0  0  0  0  0
    1.6608   -0.5085    0.5839 C   0  0  0  0  0  0  0  0  0  0  0  0
    2.0368   -0.2378   -2.1581 H   0  0  0  0  0  0  0  0  0  0  0  0
    1.6735    1.4846   -2.4348 H   0  0  0  0  0  0  0  0  0  0  0  0
    3.2467    0.8245   -2.8653 H   0  0  0  0  0  0  0  0  0  0  0  0
    3.3231    2.0734   -0.8296 H   0  0  0  0  0  0  0  0  0  0  0  0
    2.6408    1.2229    1.2115 H   0  0  0  0  0  0  0  0  0  0  0  0
    0.3629    1.8464   -0.7237 H   0  0  0  0  0  0  0  0  0  0  0  0
    1.2477    2.9435    0.3227 H   0  0  0  0  0  0  0  0  0  0  0  0
    0.3975    1.7356    2.3201 H   0  0  0  0  0  0  0  0  0  0  0  0
   -0.9085    2.3948    1.3443 H   0  0  0  0  0  0  0  0  0  0  0  0
   -1.1660   -0.0003    2.2205 H   0  0  0  0  0  0  0  0  0  0  0  0
   -0.6391   -0.5176   -1.4650 H   0  0  0  0  0  0  0  0  0  0  0  0
   -2.4947   -0.5431   -3.0635 H   0  0  0  0  0  0  0  0  0  0  0  0
   -3.3239    0.8615    1.6227 H   0  0  0  0  0  0  0  0  0  0  0  0
   -0.9441   -2.4534    1.6614 H   0  0  0  0  0  0  0  0  0  0  0  0
    0.7501   -4.2213    1.3840 H   0  0  0  0  0  0  0  0  0  0  0  0
    3.0408   -3.6411    0.6284 H   0  0  0  0  0  0  0  0  0  0  0  0
    3.6279   -1.2995    0.1397 H   0  0  0  0  0  0  0  0  0  0  0  0
  1  2  1  0
  2  3  1  0
  3  4  1  0
  4  5  1  0
  5  6  1  0
  6  7  1  0
  7  8  1  0
  8  9  2  0
  9 10  1  0
 10 11  1  0
 10 12  2  0
 12 13  1  0
 12 14  1  0
  6 15  1  0
 15 16  2  0
 16 17  1  0
 17 18  2  0
 18 19  1  0
 19 20  2  0
 20  3  1  0
 14  7  2  0
 20 15  1  0
  1 21  1  0
  1 22  1  0
  1 23  1  0
  2 24  1  0
  3 25  1  0
  4 26  1  0
  4 27  1  0
  5 28  1  0
  5 29  1  0
  6 30  1  0
  8 31  1  0
  9 32  1  0
 14 33  1  0
 16 34  1  0
 17 35  1  0
 18 36  1  0
 19 37  1  0
M  END
