
     RDKit          3D

 63 66  0  0  0  0  0  0  0  0999 V2000
   -2.5253    4.3605   -0.6577 C   0  0  0  0  0  0  0  0  0  0  0  0
   -1.8715    3.6025    0.4900 C   0  0  0  0  0  0  0  0  0  0  0  0
   -2.8788    2.8555    1.3688 C   0  0  0  0  0  0  0  0  0  0  0  0
   -3.5632    1.7316    0.6699 C   0  0  0  0  0  0  0  0  0  0  0  0
   -4.8482    1.8372    0.2791 N   0  0  0  0  0  0  0  0  0  0  0  0
   -5.1137    0.6428   -0.3068 N   0  0  0  0  0  0  0  0  0  0  0  0
   -6.4201    0.3904   -0.8637 C   0  0  0  0  0  0  0  0  0  0  0  0
   -4.0518   -0.2054   -0.2918 C   0  0  0  0  0  0  0  0  0  0  0  0
   -3.0459    0.4725    0.3269 C   0  0  0  0  0  0  0  0  0  0  0  0
   -1.7721   -0.0561    0.5345 N   0  0  0  0  0  0  0  0  0  0  0  0
   -1.6168   -1.2740    0.0888 C   0  0  0  0  0  0  0  0  0  0  0  0
   -2.6241   -1.9969   -0.5419 N   0  0  0  0  0  0  0  0  0  0  0  0
   -3.8959   -1.5256   -0.7780 C   0  0  0  0  0  0  0  0  0  0  0  0
   -4.7570   -2.1905   -1.3418 O   0  0  0  0  0  0  0  0  0  0  0  0
   -0.2810   -1.9563    0.2485 C   0  0  0  0  0  0  0  0  0  0  0  0
    0.7300   -1.2129    0.8848 C   0  0  0  0  0  0  0  0  0  0  0  0
    2.0030   -1.7570    1.0634 C   0  0  0  0  0  0  0  0  0  0  0  0
    2.2912   -3.0457    0.6270 C   0  0  0  0  0  0  0  0  0  0  0  0
    1.2939   -3.7962   -0.0004 C   0  0  0  0  0  0  0  0  0  0  0  0
    0.0082   -3.2663   -0.2015 C   0  0  0  0  0  0  0  0  0  0  0  0
   -0.9995   -3.9624   -0.8228 O   0  0  0  0  0  0  0  0  0  0  0  0
   -0.7207   -5.2820   -1.2998 C   0  0  0  0  0  0  0  0  0  0  0  0
   -1.9780   -5.8088   -1.9678 C   0  0  0  0  0  0  0  0  0  0  0  0
    3.2575   -0.7764    1.8472 S   0  0  0  0  0  0  0  0  0  0  0  0
    2.7721   -0.4543    3.1707 O   0  0  0  0  0  0  0  0  0  0  0  0
    4.5330   -1.4329    1.6500 O   0  0  0  0  0  0  0  0  0  0  0  0
    3.2698    0.6471    0.9084 N   0  0  0  0  0  0  0  0  0  0  0  0
    3.7535    0.4746   -0.4976 C   0  0  0  0  0  0  0  0  0  0  0  0
    3.6222    1.7977   -1.2817 C   0  0  0  0  0  0  0  0  0  0  0  0
    4.2821    2.9635   -0.6601 N   0  0  0  0  0  0  0  0  0  0  0  0
    5.7377    2.8924   -0.7742 C   0  0  0  0  0  0  0  0  0  0  0  0
    3.8460    3.0741    0.7482 C   0  0  0  0  0  0  0  0  0  0  0  0
    3.9781    1.7822    1.5809 C   0  0  0  0  0  0  0  0  0  0  0  0
   -3.2836    5.0589   -0.2873 H   0  0  0  0  0  0  0  0  0  0  0  0
   -3.0032    3.6771   -1.3670 H   0  0  0  0  0  0  0  0  0  0  0  0
   -1.7728    4.9378   -1.2066 H   0  0  0  0  0  0  0  0  0  0  0  0
   -1.3283    4.3199    1.1167 H   0  0  0  0  0  0  0  0  0  0  0  0
   -1.1251    2.9086    0.0852 H   0  0  0  0  0  0  0  0  0  0  0  0
   -2.3511    2.4517    2.2428 H   0  0  0  0  0  0  0  0  0  0  0  0
   -3.6210    3.5624    1.7625 H   0  0  0  0  0  0  0  0  0  0  0  0
   -6.8938   -0.4068   -0.2863 H   0  0  0  0  0  0  0  0  0  0  0  0
   -6.3034    0.0955   -1.9097 H   0  0  0  0  0  0  0  0  0  0  0  0
   -7.0215    1.3010   -0.8052 H   0  0  0  0  0  0  0  0  0  0  0  0
   -2.4388   -2.9383   -0.8617 H   0  0  0  0  0  0  0  0  0  0  0  0
    0.5339   -0.2028    1.2434 H   0  0  0  0  0  0  0  0  0  0  0  0
    3.2801   -3.4759    0.7738 H   0  0  0  0  0  0  0  0  0  0  0  0
    1.5584   -4.7993   -0.3203 H   0  0  0  0  0  0  0  0  0  0  0  0
    0.0905   -5.2564   -2.0367 H   0  0  0  0  0  0  0  0  0  0  0  0
   -0.4569   -5.9386   -0.4628 H   0  0  0  0  0  0  0  0  0  0  0  0
   -2.2679   -5.1622   -2.8026 H   0  0  0  0  0  0  0  0  0  0  0  0
   -2.8156   -5.8146   -1.2629 H   0  0  0  0  0  0  0  0  0  0  0  0
   -1.8249   -6.8243   -2.3448 H   0  0  0  0  0  0  0  0  0  0  0  0
    3.1490   -0.2824   -1.0072 H   0  0  0  0  0  0  0  0  0  0  0  0
    4.7957    0.1365   -0.4972 H   0  0  0  0  0  0  0  0  0  0  0  0
    2.5549    2.0368   -1.3841 H   0  0  0  0  0  0  0  0  0  0  0  0
    3.9922    1.6568   -2.3048 H   0  0  0  0  0  0  0  0  0  0  0  0
    6.1717    2.0219   -0.2721 H   0  0  0  0  0  0  0  0  0  0  0  0
    6.0355    2.8611   -1.8283 H   0  0  0  0  0  0  0  0  0  0  0  0
    6.1963    3.7923   -0.3499 H   0  0  0  0  0  0  0  0  0  0  0  0
    4.3858    3.8891    1.2456 H   0  0  0  0  0  0  0  0  0  0  0  0
    2.7903    3.3776    0.7450 H   0  0  0  0  0  0  0  0  0  0  0  0
    3.5262    1.9651    2.5616 H   0  0  0  0  0  0  0  0  0  0  0  0
    5.0329    1.5267    1.7306 H   0  0  0  0  0  0  0  0  0  0  0  0
  1  2  1  0
  2  3  1  0
  3  4  1  0
  4  5  2  0
  5  6  1  0
  6  7  1  0
  6  8  1  0
  8  9  2  0
  9 10  1  0
 10 11  2  0
 11 12  1  0
 12 13  1  0
 13 14  2  0
 11 15  1  0
 15 16  1  0
 16 17  2  0
 17 18  1  0
 18 19  2  0
 19 20  1  0
 20 21  1  0
 21 22  1  0
 22 23  1  0
 17 24  1  0
 24 25  2  0
 24 26  2  0
 24 27  1  0
 27 28  1  0
 28 29  1  0
 29 30  1  0
 30 31  1  0
 30 32  1  0
 32 33  1  0
  9  4  1  0
 20 15  2  0
 33 27  1  0
 13  8  1  0
  1 34  1  0
  1 35  1  0
  1 36  1  0
  2 37  1  0
  2 38  1  0
  3 39  1  0
  3 40  1  0
  7 41  1  0
  7 42  1  0
  7 43  1  0
 12 44  1  0
 16 45  1  0
 18 46  1  0
 19 47  1  0
 22 48  1  0
 22 49  1  0
 23 50  1  0
 23 51  1  0
 23 52  1  0
 28 53  1  0
 28 54  1  0
 29 55  1  0
 29 56  1  0
 31 57  1  0
 31 58  1  0
 31 59  1  0
 32 60  1  0
 32 61  1  0
 33 62  1  0
 33 63  1  0
M  END
