
     RDKit          3D

 68 70  0  0  0  0  0  0  0  0999 V2000
   -2.7759    3.5378    0.0565 C   0  0  0  0  0  0  0  0  0  0  0  0
   -3.7264    2.4437   -0.4156 C   0  0  0  0  0  0  0  0  0  0  0  0
   -4.3154    1.5571    0.7073 C   0  0  0  0  0  0  0  0  0  0  0  0
   -5.1817    2.3989    1.6616 C   0  0  0  0  0  0  0  0  0  0  0  0
   -5.2073    0.4694    0.0817 C   0  0  0  0  0  0  0  0  0  0  0  0
   -3.2084    0.8611    1.5066 C   0  0  0  0  0  0  0  0  0  0  0  0
   -3.0826    0.9304    2.7228 O   0  0  0  0  0  0  0  0  0  0  0  0
   -2.3901    0.1362    0.6899 O   0  0  0  0  0  0  0  0  0  0  0  0
   -1.3425   -0.6109    1.3490 C   0  0  1  0  0  0  0  0  0  0  0  0
   -1.9494   -1.8888    1.9800 C   0  0  0  0  0  0  0  0  0  0  0  0
   -1.1728   -3.1842    1.6753 C   0  0  1  0  0  0  0  0  0  0  0  0
   -1.9671   -4.4020    2.1480 C   0  0  0  0  0  0  0  0  0  0  0  0
   -0.8813   -3.2565    0.1976 C   0  0  0  0  0  0  0  0  0  0  0  0
   -0.4710   -2.1547   -0.4542 C   0  0  0  0  0  0  0  0  0  0  0  0
   -0.3233   -2.1317   -1.8881 C   0  0  0  0  0  0  0  0  0  0  0  0
   -0.2590   -0.9815   -2.5704 C   0  0  0  0  0  0  0  0  0  0  0  0
   -0.3327    0.3611   -1.8939 C   0  0  2  0  0  0  0  0  0  0  0  0
    0.2416    1.4671   -2.7831 C   0  0  0  0  0  0  0  0  0  0  0  0
    0.2699    0.3461   -0.4633 C   0  0  2  0  0  0  0  0  0  0  0  0
    1.8151    0.5322   -0.3912 C   0  0  0  0  0  0  0  0  0  0  0  0
    2.6724   -0.5682   -1.0326 C   0  0  0  0  0  0  0  0  0  0  0  0
    4.1892   -0.3251   -0.9378 C   0  0  2  0  0  0  0  0  0  0  0  0
    4.7115   -0.3564    0.4907 C   0  0  0  0  0  0  0  0  0  0  0  0
    6.2074   -0.1084    0.4636 C   0  0  1  0  0  0  0  0  0  0  0  0
    6.8549   -1.2036   -0.1798 O   0  0  0  0  0  0  0  0  0  0  0  0
    6.5300    1.1921   -0.2428 C   0  0  0  0  0  0  0  0  0  0  0  0
    5.7280    1.4656   -1.4893 C   0  0  0  0  0  0  0  0  0  0  0  0
    6.1284    2.2654   -2.3319 O   0  0  0  0  0  0  0  0  0  0  0  0
    4.4918    0.9276   -1.5780 O   0  0  0  0  0  0  0  0  0  0  0  0
   -0.1835   -0.9024    0.3576 C   0  0  1  0  0  0  0  0  0  0  0  0
   -2.3746    4.0780   -0.8075 H   0  0  0  0  0  0  0  0  0  0  0  0
   -3.2858    4.2676    0.6916 H   0  0  0  0  0  0  0  0  0  0  0  0
   -1.9287    3.1243    0.6113 H   0  0  0  0  0  0  0  0  0  0  0  0
   -4.5453    2.9170   -0.9729 H   0  0  0  0  0  0  0  0  0  0  0  0
   -3.1922    1.8197   -1.1406 H   0  0  0  0  0  0  0  0  0  0  0  0
   -4.5833    3.1266    2.2203 H   0  0  0  0  0  0  0  0  0  0  0  0
   -5.9574    2.9463    1.1148 H   0  0  0  0  0  0  0  0  0  0  0  0
   -5.6824    1.7650    2.4035 H   0  0  0  0  0  0  0  0  0  0  0  0
   -4.6525   -0.1399   -0.6413 H   0  0  0  0  0  0  0  0  0  0  0  0
   -6.0620    0.9107   -0.4429 H   0  0  0  0  0  0  0  0  0  0  0  0
   -5.5952   -0.2124    0.8475 H   0  0  0  0  0  0  0  0  0  0  0  0
   -0.9183    0.0158    2.1460 H   0  0  0  0  0  0  0  0  0  0  0  0
   -2.9903   -2.0026    1.6465 H   0  0  0  0  0  0  0  0  0  0  0  0
   -2.0021   -1.7536    3.0680 H   0  0  0  0  0  0  0  0  0  0  0  0
   -0.2186   -3.1785    2.2182 H   0  0  0  0  0  0  0  0  0  0  0  0
   -2.9266   -4.4856    1.6254 H   0  0  0  0  0  0  0  0  0  0  0  0
   -2.1714   -4.3375    3.2222 H   0  0  0  0  0  0  0  0  0  0  0  0
   -1.4069   -5.3266    1.9698 H   0  0  0  0  0  0  0  0  0  0  0  0
   -1.0739   -4.1854   -0.3327 H   0  0  0  0  0  0  0  0  0  0  0  0
   -0.3315   -3.0753   -2.4279 H   0  0  0  0  0  0  0  0  0  0  0  0
   -0.2137   -1.0131   -3.6562 H   0  0  0  0  0  0  0  0  0  0  0  0
   -1.4030    0.5833   -1.7971 H   0  0  0  0  0  0  0  0  0  0  0  0
    0.1881    2.4375   -2.2780 H   0  0  0  0  0  0  0  0  0  0  0  0
    1.2832    1.2780   -3.0618 H   0  0  0  0  0  0  0  0  0  0  0  0
   -0.3326    1.5497   -3.7133 H   0  0  0  0  0  0  0  0  0  0  0  0
   -0.1220    1.2395    0.0449 H   0  0  0  0  0  0  0  0  0  0  0  0
    2.0803    0.6186    0.6697 H   0  0  0  0  0  0  0  0  0  0  0  0
    2.0763    1.5019   -0.8308 H   0  0  0  0  0  0  0  0  0  0  0  0
    2.4450   -1.5407   -0.5837 H   0  0  0  0  0  0  0  0  0  0  0  0
    2.4233   -0.6305   -2.0970 H   0  0  0  0  0  0  0  0  0  0  0  0
    4.6740   -1.1111   -1.5312 H   0  0  0  0  0  0  0  0  0  0  0  0
    4.2428    0.4250    1.0987 H   0  0  0  0  0  0  0  0  0  0  0  0
    4.4912   -1.3286    0.9455 H   0  0  0  0  0  0  0  0  0  0  0  0
    6.5889   -0.0762    1.4905 H   0  0  0  0  0  0  0  0  0  0  0  0
    7.8171   -1.0914   -0.0753 H   0  0  0  0  0  0  0  0  0  0  0  0
    6.3345    2.0310    0.4357 H   0  0  0  0  0  0  0  0  0  0  0  0
    7.5899    1.2093   -0.5214 H   0  0  0  0  0  0  0  0  0  0  0  0
    0.6658   -1.1735    1.0052 H   0  0  0  0  0  0  0  0  0  0  0  0
  1  2  1  0
  2  3  1  0
  3  4  1  0
  3  5  1  0
  3  6  1  0
  6  7  2  0
  6  8  1  0
  8  9  1  0
  9 10  1  0
 10 11  1  0
 11 12  1  0
 11 13  1  0
 13 14  2  0
 14 15  1  0
 15 16  2  0
 16 17  1  0
 17 18  1  0
 17 19  1  0
 19 20  1  0
 20 21  1  0
 21 22  1  0
 22 23  1  0
 23 24  1  0
 24 25  1  0
 24 26  1  0
 26 27  1  0
 27 28  2  0
 27 29  1  0
 19 30  1  0
 30  9  1  0
 30 14  1  0
 29 22  1  0
  1 31  1  0
  1 32  1  0
  1 33  1  0
  2 34  1  0
  2 35  1  0
  4 36  1  0
  4 37  1  0
  4 38  1  0
  5 39  1  0
  5 40  1  0
  5 41  1  0
  9 42  1  1
 10 43  1  0
 10 44  1  0
 11 45  1  1
 12 46  1  0
 12 47  1  0
 12 48  1  0
 13 49  1  0
 15 50  1  0
 16 51  1  0
 17 52  1  1
 18 53  1  0
 18 54  1  0
 18 55  1  0
 19 56  1  1
 20 57  1  0
 20 58  1  0
 21 59  1  0
 21 60  1  0
 22 61  1  6
 23 62  1  0
 23 63  1  0
 24 64  1  1
 25 65  1  0
 26 66  1  0
 26 67  1  0
 30 68  1  1
M  END
