
     RDKit          3D

 43 45  0  0  0  0  0  0  0  0999 V2000
   -2.3635   -2.3444    0.9402 N   0  0  0  0  0  0  0  0  0  0  0  0
   -1.8430   -0.9710    0.8115 C   0  0  1  0  0  0  0  0  0  0  0  0
   -0.3055   -1.0083    0.7391 C   0  0  0  0  0  0  0  0  0  0  0  0
    0.3273    0.3641    0.9233 C   0  0  0  0  0  0  0  0  0  0  0  0
   -0.3504    1.3470    1.2211 O   0  0  0  0  0  0  0  0  0  0  0  0
    1.7047    0.4585    0.7341 N   0  0  0  0  0  0  0  0  0  0  0  0
    2.6152   -0.6947    0.7396 C   0  0  0  0  0  0  0  0  0  0  0  0
    3.7839   -0.4917   -0.2237 C   0  0  0  0  0  0  0  0  0  0  0  0
    4.3633    0.8199   -0.0501 N   0  0  0  0  0  0  0  0  0  0  0  0
    3.6931    1.8738    0.5069 C   0  0  0  0  0  0  0  0  0  0  0  0
    4.4923    2.9180    0.5160 N   0  0  0  0  0  0  0  0  0  0  0  0
    5.6879    2.5443   -0.0550 N   0  0  0  0  0  0  0  0  0  0  0  0
    5.6033    1.2733   -0.4052 C   0  0  0  0  0  0  0  0  0  0  0  0
    6.6241    0.4258   -1.0636 C   0  0  0  0  0  0  0  0  0  0  0  0
    7.7222    1.1049   -1.4727 F   0  0  0  0  0  0  0  0  0  0  0  0
    7.0517   -0.5647   -0.2346 F   0  0  0  0  0  0  0  0  0  0  0  0
    6.1131   -0.2003   -2.1592 F   0  0  0  0  0  0  0  0  0  0  0  0
    2.3020    1.7727    1.0246 C   0  0  0  0  0  0  0  0  0  0  0  0
   -2.4462   -0.2874   -0.4416 C   0  0  0  0  0  0  0  0  0  0  0  0
   -3.9434   -0.1067   -0.3651 C   0  0  0  0  0  0  0  0  0  0  0  0
   -4.4981    0.9121    0.4242 C   0  0  0  0  0  0  0  0  0  0  0  0
   -5.8815    1.0529    0.4992 C   0  0  0  0  0  0  0  0  0  0  0  0
   -6.4023    2.0291    1.2550 F   0  0  0  0  0  0  0  0  0  0  0  0
   -6.7178    0.1907   -0.2025 C   0  0  0  0  0  0  0  0  0  0  0  0
   -8.0483    0.3334   -0.1266 F   0  0  0  0  0  0  0  0  0  0  0  0
   -6.1869   -0.8230   -0.9889 C   0  0  0  0  0  0  0  0  0  0  0  0
   -4.8050   -0.9643   -1.0629 C   0  0  0  0  0  0  0  0  0  0  0  0
   -4.2990   -1.9428   -1.8280 F   0  0  0  0  0  0  0  0  0  0  0  0
   -2.1723   -2.8864    0.0986 H   0  0  0  0  0  0  0  0  0  0  0  0
   -1.9267   -2.8270    1.7229 H   0  0  0  0  0  0  0  0  0  0  0  0
   -2.1523   -0.4232    1.7100 H   0  0  0  0  0  0  0  0  0  0  0  0
    0.0791   -1.6476    1.5437 H   0  0  0  0  0  0  0  0  0  0  0  0
    0.0097   -1.4242   -0.2250 H   0  0  0  0  0  0  0  0  0  0  0  0
    2.9777   -0.8055    1.7694 H   0  0  0  0  0  0  0  0  0  0  0  0
    2.0978   -1.6207    0.4807 H   0  0  0  0  0  0  0  0  0  0  0  0
    4.5554   -1.2484   -0.0551 H   0  0  0  0  0  0  0  0  0  0  0  0
    3.4434   -0.5472   -1.2637 H   0  0  0  0  0  0  0  0  0  0  0  0
    1.6825    2.5617    0.5841 H   0  0  0  0  0  0  0  0  0  0  0  0
    2.3014    1.9039    2.1128 H   0  0  0  0  0  0  0  0  0  0  0  0
   -2.0008    0.7028   -0.5962 H   0  0  0  0  0  0  0  0  0  0  0  0
   -2.1859   -0.8597   -1.3422 H   0  0  0  0  0  0  0  0  0  0  0  0
   -3.8641    1.5947    0.9843 H   0  0  0  0  0  0  0  0  0  0  0  0
   -6.8384   -1.4946   -1.5348 H   0  0  0  0  0  0  0  0  0  0  0  0
  1  2  1  0
  2  3  1  0
  3  4  1  0
  4  5  2  0
  4  6  1  0
  6  7  1  0
  7  8  1  0
  8  9  1  0
  9 10  1  0
 10 11  2  0
 11 12  1  0
 12 13  2  0
 13 14  1  0
 14 15  1  0
 14 16  1  0
 14 17  1  0
 10 18  1  0
  2 19  1  0
 19 20  1  0
 20 21  1  0
 21 22  2  0
 22 23  1  0
 22 24  1  0
 24 25  1  0
 24 26  2  0
 26 27  1  0
 27 28  1  0
 18  6  1  0
 27 20  2  0
 13  9  1  0
  1 29  1  0
  1 30  1  0
  2 31  1  1
  3 32  1  0
  3 33  1  0
  7 34  1  0
  7 35  1  0
  8 36  1  0
  8 37  1  0
 18 38  1  0
 18 39  1  0
 19 40  1  0
 19 41  1  0
 21 42  1  0
 26 43  1  0
M  END
