
     RDKit          3D

 61 65  0  0  0  0  0  0  0  0999 V2000
   -1.6029    5.1561    1.7054 C   0  0  0  0  0  0  0  0  0  0  0  0
   -1.2139    4.0242    0.7988 C   0  0  0  0  0  0  0  0  0  0  0  0
   -0.8596    4.1811   -0.3623 O   0  0  0  0  0  0  0  0  0  0  0  0
   -1.3015    2.4357    1.5556 S   0  0  0  0  0  0  0  0  0  0  0  0
   -0.8479    1.3589    0.1123 C   0  0  2  0  0  0  0  0  0  0  0  0
   -2.0939    1.2506   -0.8016 C   0  0  0  0  0  0  0  0  0  0  0  0
   -3.0247    0.1705   -0.3098 C   0  0  0  0  0  0  0  0  0  0  0  0
   -4.2330    0.4762    0.1937 C   0  0  0  0  0  0  0  0  0  0  0  0
   -5.0906   -0.5518    0.8300 C   0  0  0  0  0  0  0  0  0  0  0  0
   -6.2462   -0.2625    1.1342 O   0  0  0  0  0  0  0  0  0  0  0  0
   -4.5228   -1.9306    1.0757 C   0  0  0  0  0  0  0  0  0  0  0  0
   -2.9993   -1.9649    0.9600 C   0  0  0  0  0  0  0  0  0  0  0  0
   -2.4551   -1.2427   -0.3072 C   0  0  1  0  0  0  0  0  0  0  0  0
   -2.9546   -2.0033   -1.5587 C   0  0  0  0  0  0  0  0  0  0  0  0
   -0.8746   -1.2052   -0.2371 C   0  0  1  0  0  0  0  0  0  0  0  0
   -0.1566   -1.2390   -1.6088 C   0  0  0  0  0  0  0  0  0  0  0  0
    1.2346   -0.6042   -1.6262 C   0  0  0  0  0  0  0  0  0  0  0  0
    2.0292   -0.7762   -0.3128 C   0  0  2  0  0  0  0  0  0  0  0  0
    2.3233   -2.2817   -0.1308 C   0  0  0  0  0  0  0  0  0  0  0  0
    1.1960   -0.2058    0.8933 C   0  0  1  0  0  0  0  0  0  0  0  0
    1.9565    1.0471    1.3659 C   0  0  0  0  0  0  0  0  0  0  0  0
    2.8429    1.4463    0.2006 C   0  0  0  0  0  0  0  0  0  0  0  0
    3.3406    0.0997   -0.3266 C   0  0  1  0  0  0  0  0  0  0  0  0
    4.5332   -0.3872    0.4963 C   0  0  0  0  0  0  0  0  0  0  0  0
    5.3772   -1.1436   -0.5015 C   0  0  0  0  0  0  0  0  0  0  0  0
    4.9964   -0.4992   -1.7974 C   0  0  0  0  0  0  0  0  0  0  0  0
    5.5883   -0.6398   -2.8549 O   0  0  0  0  0  0  0  0  0  0  0  0
    3.8722    0.2573   -1.6444 O   0  0  0  0  0  0  0  0  0  0  0  0
   -0.3474   -0.0330    0.6423 C   0  0  1  0  0  0  0  0  0  0  0  0
   -0.9154    5.2139    2.5539 H   0  0  0  0  0  0  0  0  0  0  0  0
   -2.6300    5.0243    2.0578 H   0  0  0  0  0  0  0  0  0  0  0  0
   -1.5478    6.0976    1.1502 H   0  0  0  0  0  0  0  0  0  0  0  0
   -0.0477    1.8513   -0.4452 H   0  0  0  0  0  0  0  0  0  0  0  0
   -1.7866    1.0163   -1.8260 H   0  0  0  0  0  0  0  0  0  0  0  0
   -2.6150    2.2117   -0.8929 H   0  0  0  0  0  0  0  0  0  0  0  0
   -4.6301    1.4852    0.2028 H   0  0  0  0  0  0  0  0  0  0  0  0
   -4.8078   -2.2430    2.0868 H   0  0  0  0  0  0  0  0  0  0  0  0
   -4.9874   -2.6249    0.3685 H   0  0  0  0  0  0  0  0  0  0  0  0
   -2.5824   -1.4997    1.8629 H   0  0  0  0  0  0  0  0  0  0  0  0
   -2.6661   -3.0105    0.9737 H   0  0  0  0  0  0  0  0  0  0  0  0
   -4.0442   -2.1099   -1.5758 H   0  0  0  0  0  0  0  0  0  0  0  0
   -2.5268   -3.0113   -1.5984 H   0  0  0  0  0  0  0  0  0  0  0  0
   -2.7014   -1.4865   -2.4897 H   0  0  0  0  0  0  0  0  0  0  0  0
   -0.5787   -2.1323    0.2735 H   0  0  0  0  0  0  0  0  0  0  0  0
   -0.7344   -0.7440   -2.3934 H   0  0  0  0  0  0  0  0  0  0  0  0
   -0.0755   -2.2865   -1.9275 H   0  0  0  0  0  0  0  0  0  0  0  0
    1.7943   -1.0257   -2.4715 H   0  0  0  0  0  0  0  0  0  0  0  0
    1.1203    0.4610   -1.8592 H   0  0  0  0  0  0  0  0  0  0  0  0
    2.9184   -2.6676   -0.9650 H   0  0  0  0  0  0  0  0  0  0  0  0
    2.8592   -2.4906    0.7996 H   0  0  0  0  0  0  0  0  0  0  0  0
    1.4130   -2.8850   -0.0913 H   0  0  0  0  0  0  0  0  0  0  0  0
    1.2689   -0.9311    1.7180 H   0  0  0  0  0  0  0  0  0  0  0  0
    1.3384    1.8747    1.7026 H   0  0  0  0  0  0  0  0  0  0  0  0
    2.5871    0.7779    2.2238 H   0  0  0  0  0  0  0  0  0  0  0  0
    2.2779    1.9875   -0.5664 H   0  0  0  0  0  0  0  0  0  0  0  0
    3.6527    2.1157    0.5101 H   0  0  0  0  0  0  0  0  0  0  0  0
    4.2765   -0.9710    1.3836 H   0  0  0  0  0  0  0  0  0  0  0  0
    5.1271    0.4654    0.8524 H   0  0  0  0  0  0  0  0  0  0  0  0
    5.1325   -2.2071   -0.5351 H   0  0  0  0  0  0  0  0  0  0  0  0
    6.4432   -1.0093   -0.3016 H   0  0  0  0  0  0  0  0  0  0  0  0
   -0.7978   -0.1793    1.6347 H   0  0  0  0  0  0  0  0  0  0  0  0
  1  2  1  0
  2  3  2  0
  2  4  1  0
  4  5  1  0
  5  6  1  0
  6  7  1  0
  7  8  2  0
  8  9  1  0
  9 10  2  0
  9 11  1  0
 11 12  1  0
 12 13  1  0
 13 14  1  6
 13 15  1  0
 15 16  1  0
 16 17  1  0
 17 18  1  0
 18 19  1  1
 18 20  1  0
 20 21  1  0
 21 22  1  0
 22 23  1  0
 23 24  1  0
 24 25  1  0
 25 26  1  0
 26 27  2  0
 26 28  1  0
 20 29  1  0
 29  5  1  0
 13  7  1  0
 29 15  1  0
 23 18  1  0
 23 28  1  6
  1 30  1  0
  1 31  1  0
  1 32  1  0
  5 33  1  6
  6 34  1  0
  6 35  1  0
  8 36  1  0
 11 37  1  0
 11 38  1  0
 12 39  1  0
 12 40  1  0
 14 41  1  0
 14 42  1  0
 14 43  1  0
 15 44  1  1
 16 45  1  0
 16 46  1  0
 17 47  1  0
 17 48  1  0
 19 49  1  0
 19 50  1  0
 19 51  1  0
 20 52  1  1
 21 53  1  0
 21 54  1  0
 22 55  1  0
 22 56  1  0
 24 57  1  0
 24 58  1  0
 25 59  1  0
 25 60  1  0
 29 61  1  1
M  END
