
     RDKit          3D

 41 42  0  0  0  0  0  0  0  0999 V2000
    5.2871   -0.3562    0.5708 C   0  0  0  0  0  0  0  0  0  0  0  0
    4.1011   -1.1772    0.7938 N   0  0  0  0  0  0  0  0  0  0  0  0
    3.2742   -1.0184    2.2478 S   0  0  0  0  0  0  0  0  0  0  0  0
    4.2596   -0.9701    3.3077 O   0  0  0  0  0  0  0  0  0  0  0  0
    2.2445   -2.0361    2.2432 O   0  0  0  0  0  0  0  0  0  0  0  0
    2.4879    0.6036    2.1480 C   0  0  0  0  0  0  0  0  0  0  0  0
    1.8061    0.8119    0.8169 C   0  0  0  0  0  0  0  0  0  0  0  0
    0.6827    0.0456    0.4545 C   0  0  0  0  0  0  0  0  0  0  0  0
    0.0566    0.2445   -0.7946 C   0  0  0  0  0  0  0  0  0  0  0  0
    0.5707    1.2222   -1.6441 C   0  0  0  0  0  0  0  0  0  0  0  0
   -0.1974    1.2115   -2.7844 N   0  0  0  0  0  0  0  0  0  0  0  0
   -1.1691    0.2538   -2.6902 C   0  0  0  0  0  0  0  0  0  0  0  0
   -1.0617   -0.3605   -1.4570 C   0  0  0  0  0  0  0  0  0  0  0  0
   -1.9214   -1.4785   -0.9416 C   0  0  0  0  0  0  0  0  0  0  0  0
   -2.7803   -1.1212    0.2889 C   0  0  0  0  0  0  0  0  0  0  0  0
   -4.1696   -0.7056   -0.0056 N   0  0  0  0  0  0  0  0  0  0  0  0
   -4.9307   -0.6056    1.2434 C   0  0  0  0  0  0  0  0  0  0  0  0
   -4.2190    0.5737   -0.7140 C   0  0  0  0  0  0  0  0  0  0  0  0
    1.6692    2.0179   -1.3060 C   0  0  0  0  0  0  0  0  0  0  0  0
    2.2717    1.7986   -0.0627 C   0  0  0  0  0  0  0  0  0  0  0  0
    5.0208    0.6958    0.4524 H   0  0  0  0  0  0  0  0  0  0  0  0
    6.0063   -0.4675    1.3861 H   0  0  0  0  0  0  0  0  0  0  0  0
    5.7745   -0.6851   -0.3518 H   0  0  0  0  0  0  0  0  0  0  0  0
    3.4718   -1.2943   -0.0032 H   0  0  0  0  0  0  0  0  0  0  0  0
    1.7641    0.6705    2.9665 H   0  0  0  0  0  0  0  0  0  0  0  0
    3.2702    1.3498    2.3215 H   0  0  0  0  0  0  0  0  0  0  0  0
    0.2894   -0.7138    1.1273 H   0  0  0  0  0  0  0  0  0  0  0  0
   -0.0527    1.8165   -3.5806 H   0  0  0  0  0  0  0  0  0  0  0  0
   -1.8617    0.0893   -3.5053 H   0  0  0  0  0  0  0  0  0  0  0  0
   -1.2492   -2.3018   -0.6631 H   0  0  0  0  0  0  0  0  0  0  0  0
   -2.5549   -1.8755   -1.7450 H   0  0  0  0  0  0  0  0  0  0  0  0
   -2.2813   -0.3764    0.9216 H   0  0  0  0  0  0  0  0  0  0  0  0
   -2.8421   -2.0418    0.8853 H   0  0  0  0  0  0  0  0  0  0  0  0
   -4.9473   -1.5694    1.7645 H   0  0  0  0  0  0  0  0  0  0  0  0
   -4.5146    0.1478    1.9222 H   0  0  0  0  0  0  0  0  0  0  0  0
   -5.9756   -0.3466    1.0385 H   0  0  0  0  0  0  0  0  0  0  0  0
   -3.8194    0.4754   -1.7261 H   0  0  0  0  0  0  0  0  0  0  0  0
   -5.2563    0.9060   -0.8389 H   0  0  0  0  0  0  0  0  0  0  0  0
   -3.6704    1.3630   -0.1877 H   0  0  0  0  0  0  0  0  0  0  0  0
    2.0444    2.7821   -1.9794 H   0  0  0  0  0  0  0  0  0  0  0  0
    3.1220    2.4217    0.2110 H   0  0  0  0  0  0  0  0  0  0  0  0
  1  2  1  0
  2  3  1  0
  3  4  2  0
  3  5  2  0
  3  6  1  0
  6  7  1  0
  7  8  1  0
  8  9  2  0
  9 10  1  0
 10 11  1  0
 11 12  1  0
 12 13  2  0
 13 14  1  0
 14 15  1  0
 15 16  1  0
 16 17  1  0
 16 18  1  0
 10 19  2  0
 19 20  1  0
 20  7  2  0
 13  9  1  0
  1 21  1  0
  1 22  1  0
  1 23  1  0
  2 24  1  0
  6 25  1  0
  6 26  1  0
  8 27  1  0
 11 28  1  0
 12 29  1  0
 14 30  1  0
 14 31  1  0
 15 32  1  0
 15 33  1  0
 17 34  1  0
 17 35  1  0
 17 36  1  0
 18 37  1  0
 18 38  1  0
 18 39  1  0
 19 40  1  0
 20 41  1  0
M  END
