
     RDKit          3D

 48 53  0  0  0  0  0  0  0  0999 V2000
    1.7841   -2.8429    1.4983 O   0  0  0  0  0  0  0  0  0  0  0  0
    0.8857   -2.4354    0.7619 C   0  0  0  0  0  0  0  0  0  0  0  0
    0.4190   -3.1889   -0.3313 N   0  0  0  0  0  0  0  0  0  0  0  0
    1.1984   -4.3529   -0.7053 C   0  0  0  0  0  0  0  0  0  0  0  0
   -0.7959   -2.9840   -0.9980 C   0  0  0  0  0  0  0  0  0  0  0  0
   -1.1985   -3.6350   -1.9567 O   0  0  0  0  0  0  0  0  0  0  0  0
   -1.6154   -1.9332   -0.3426 C   0  0  2  0  0  0  0  0  0  0  0  0
   -2.8403   -1.3242   -1.0705 C   0  0  0  0  0  0  0  0  0  0  0  0
   -2.8699    0.0058   -0.4049 C   0  0  0  0  0  0  0  0  0  0  0  0
   -1.6595    0.2897    0.1841 C   0  0  0  0  0  0  0  0  0  0  0  0
   -1.7421    1.4984    0.7879 N   0  0  0  0  0  0  0  0  0  0  0  0
   -3.0229    2.0008    0.5963 C   0  0  0  0  0  0  0  0  0  0  0  0
   -3.5855    3.2064    1.0330 C   0  0  0  0  0  0  0  0  0  0  0  0
   -4.9182    3.4621    0.6944 C   0  0  0  0  0  0  0  0  0  0  0  0
   -5.6607    2.5485   -0.0517 C   0  0  0  0  0  0  0  0  0  0  0  0
   -5.0902    1.3460   -0.4844 C   0  0  0  0  0  0  0  0  0  0  0  0
   -3.7518    1.0665   -0.1583 C   0  0  0  0  0  0  0  0  0  0  0  0
   -0.6409   -0.7542   -0.0758 C   0  0  1  0  0  0  0  0  0  0  0  0
    0.2704   -1.1838    0.9527 N   0  0  0  0  0  0  0  0  0  0  0  0
    1.0041   -0.2166    1.7615 C   0  0  0  0  0  0  0  0  0  0  0  0
    2.1499    0.4420    1.0176 C   0  0  0  0  0  0  0  0  0  0  0  0
    1.9373    1.5606    0.1787 C   0  0  0  0  0  0  0  0  0  0  0  0
    2.9953    2.1565   -0.5177 C   0  0  0  0  0  0  0  0  0  0  0  0
    4.2518    1.6164   -0.3623 C   0  0  0  0  0  0  0  0  0  0  0  0
    4.4738    0.5279    0.4446 C   0  0  0  0  0  0  0  0  0  0  0  0
    3.4508   -0.0797    1.1419 C   0  0  0  0  0  0  0  0  0  0  0  0
    5.7796    0.1494    0.4574 O   0  0  0  0  0  0  0  0  0  0  0  0
    6.3535    1.1245   -0.4370 C   0  0  0  0  0  0  0  0  0  0  0  0
    5.3888    2.0619   -0.9596 O   0  0  0  0  0  0  0  0  0  0  0  0
    2.2675   -4.1513   -0.5860 H   0  0  0  0  0  0  0  0  0  0  0  0
    1.0072   -4.6456   -1.7414 H   0  0  0  0  0  0  0  0  0  0  0  0
    0.9189   -5.1800   -0.0450 H   0  0  0  0  0  0  0  0  0  0  0  0
   -1.9768   -2.3609    0.6086 H   0  0  0  0  0  0  0  0  0  0  0  0
   -3.7467   -1.9078   -0.8875 H   0  0  0  0  0  0  0  0  0  0  0  0
   -2.6744   -1.2306   -2.1484 H   0  0  0  0  0  0  0  0  0  0  0  0
   -1.0189    1.9854    1.2976 H   0  0  0  0  0  0  0  0  0  0  0  0
   -3.0149    3.9222    1.6156 H   0  0  0  0  0  0  0  0  0  0  0  0
   -5.3831    4.3901    1.0201 H   0  0  0  0  0  0  0  0  0  0  0  0
   -6.6954    2.7702   -0.3015 H   0  0  0  0  0  0  0  0  0  0  0  0
   -5.6761    0.6400   -1.0651 H   0  0  0  0  0  0  0  0  0  0  0  0
   -0.0620   -0.4982   -0.9744 H   0  0  0  0  0  0  0  0  0  0  0  0
    1.4016   -0.7281    2.6478 H   0  0  0  0  0  0  0  0  0  0  0  0
    0.3197    0.5369    2.1582 H   0  0  0  0  0  0  0  0  0  0  0  0
    0.9436    1.9782    0.0517 H   0  0  0  0  0  0  0  0  0  0  0  0
    2.8339    3.0133   -1.1624 H   0  0  0  0  0  0  0  0  0  0  0  0
    3.6566   -0.9464    1.7643 H   0  0  0  0  0  0  0  0  0  0  0  0
    7.1275    1.6826    0.1025 H   0  0  0  0  0  0  0  0  0  0  0  0
    6.8211    0.5978   -1.2770 H   0  0  0  0  0  0  0  0  0  0  0  0
  1  2  2  0
  2  3  1  0
  3  4  1  0
  3  5  1  0
  5  6  2  0
  5  7  1  0
  7  8  1  0
  8  9  1  0
  9 10  2  0
 10 11  1  0
 11 12  1  0
 12 13  2  0
 13 14  1  0
 14 15  2  0
 15 16  1  0
 16 17  2  0
 10 18  1  0
 18 19  1  0
 19 20  1  0
 20 21  1  0
 21 22  1  0
 22 23  2  0
 23 24  1  0
 24 25  2  0
 25 26  1  0
 25 27  1  0
 27 28  1  0
 28 29  1  0
 19  2  1  0
 26 21  2  0
 18  7  1  0
 29 24  1  0
 17  9  1  0
 17 12  1  0
  4 30  1  0
  4 31  1  0
  4 32  1  0
  7 33  1  1
  8 34  1  0
  8 35  1  0
 11 36  1  0
 13 37  1  0
 14 38  1  0
 15 39  1  0
 16 40  1  0
 18 41  1  6
 20 42  1  0
 20 43  1  0
 22 44  1  0
 23 45  1  0
 26 46  1  0
 28 47  1  0
 28 48  1  0
M  END
