
     RDKit          3D

 57 59  0  0  0  0  0  0  0  0999 V2000
   -5.3505    0.1413    0.5820 C   0  0  0  0  0  0  0  0  0  0  0  0
   -4.1208   -0.1215    1.4439 C   0  0  0  0  0  0  0  0  0  0  0  0
   -2.8159    0.1491    0.7042 C   0  0  0  0  0  0  0  0  0  0  0  0
   -1.9641   -0.8111    0.2460 C   0  0  0  0  0  0  0  0  0  0  0  0
   -2.3306   -2.2428    0.3966 C   0  0  0  0  0  0  0  0  0  0  0  0
   -3.2630   -2.8384   -0.4635 C   0  0  0  0  0  0  0  0  0  0  0  0
   -3.5941   -4.1867   -0.3186 C   0  0  0  0  0  0  0  0  0  0  0  0
   -2.9921   -4.9491    0.6817 C   0  0  0  0  0  0  0  0  0  0  0  0
   -2.0572   -4.3662    1.5364 C   0  0  0  0  0  0  0  0  0  0  0  0
   -1.7249   -3.0178    1.3937 C   0  0  0  0  0  0  0  0  0  0  0  0
   -0.6706   -0.4539   -0.4000 C   0  0  0  0  0  0  0  0  0  0  0  0
   -0.4739   -0.7070   -1.7612 C   0  0  0  0  0  0  0  0  0  0  0  0
    0.7421   -0.3837   -2.3691 C   0  0  0  0  0  0  0  0  0  0  0  0
    1.7803    0.1912   -1.6319 C   0  0  0  0  0  0  0  0  0  0  0  0
    2.9092    0.4528   -2.3564 O   0  0  0  0  0  0  0  0  0  0  0  0
    4.0040    1.1102   -1.7095 C   0  0  0  0  0  0  0  0  0  0  0  0
    4.9248    0.0866   -1.0224 C   0  0  0  0  0  0  0  0  0  0  0  0
    6.1429    0.6761   -0.4324 N   0  0  0  0  0  0  0  0  0  0  0  0
    5.8363    1.4869    0.7479 C   0  0  0  0  0  0  0  0  0  0  0  0
    7.0837   -0.3874   -0.0681 C   0  0  0  0  0  0  0  0  0  0  0  0
    1.5937    0.4313   -0.2713 C   0  0  0  0  0  0  0  0  0  0  0  0
    0.3774    0.1057    0.3414 C   0  0  0  0  0  0  0  0  0  0  0  0
   -2.5205    1.5981    0.5569 C   0  0  0  0  0  0  0  0  0  0  0  0
   -2.5697    2.2101   -0.7028 C   0  0  0  0  0  0  0  0  0  0  0  0
   -2.2920    3.5715   -0.8397 C   0  0  0  0  0  0  0  0  0  0  0  0
   -1.9671    4.3335    0.2812 C   0  0  0  0  0  0  0  0  0  0  0  0
   -1.9187    3.7359    1.5395 C   0  0  0  0  0  0  0  0  0  0  0  0
   -2.1945    2.3740    1.6776 C   0  0  0  0  0  0  0  0  0  0  0  0
   -6.2585   -0.1168    1.1367 H   0  0  0  0  0  0  0  0  0  0  0  0
   -5.3333   -0.4580   -0.3337 H   0  0  0  0  0  0  0  0  0  0  0  0
   -5.4243    1.1961    0.2984 H   0  0  0  0  0  0  0  0  0  0  0  0
   -4.1790    0.4983    2.3474 H   0  0  0  0  0  0  0  0  0  0  0  0
   -4.1700   -1.1510    1.8138 H   0  0  0  0  0  0  0  0  0  0  0  0
   -3.7332   -2.2538   -1.2501 H   0  0  0  0  0  0  0  0  0  0  0  0
   -4.3191   -4.6423   -0.9878 H   0  0  0  0  0  0  0  0  0  0  0  0
   -3.2488   -5.9994    0.7928 H   0  0  0  0  0  0  0  0  0  0  0  0
   -1.5843   -4.9618    2.3127 H   0  0  0  0  0  0  0  0  0  0  0  0
   -0.9921   -2.5735    2.0626 H   0  0  0  0  0  0  0  0  0  0  0  0
   -1.2645   -1.1525   -2.3590 H   0  0  0  0  0  0  0  0  0  0  0  0
    0.8804   -0.5813   -3.4292 H   0  0  0  0  0  0  0  0  0  0  0  0
    4.5704    1.6107   -2.5043 H   0  0  0  0  0  0  0  0  0  0  0  0
    3.6562    1.9082   -1.0455 H   0  0  0  0  0  0  0  0  0  0  0  0
    5.2113   -0.6424   -1.7931 H   0  0  0  0  0  0  0  0  0  0  0  0
    4.3684   -0.4899   -0.2727 H   0  0  0  0  0  0  0  0  0  0  0  0
    6.7560    1.8950    1.1828 H   0  0  0  0  0  0  0  0  0  0  0  0
    5.2173    2.3505    0.4862 H   0  0  0  0  0  0  0  0  0  0  0  0
    5.3181    0.9102    1.5227 H   0  0  0  0  0  0  0  0  0  0  0  0
    8.0090    0.0383    0.3362 H   0  0  0  0  0  0  0  0  0  0  0  0
    7.3698   -0.9688   -0.9518 H   0  0  0  0  0  0  0  0  0  0  0  0
    6.6643   -1.0734    0.6769 H   0  0  0  0  0  0  0  0  0  0  0  0
    2.3680    0.8668    0.3496 H   0  0  0  0  0  0  0  0  0  0  0  0
    0.2503    0.2986    1.4038 H   0  0  0  0  0  0  0  0  0  0  0  0
   -2.8211    1.6270   -1.5853 H   0  0  0  0  0  0  0  0  0  0  0  0
   -2.3268    4.0347   -1.8221 H   0  0  0  0  0  0  0  0  0  0  0  0
   -1.7497    5.3928    0.1730 H   0  0  0  0  0  0  0  0  0  0  0  0
   -1.6640    4.3294    2.4135 H   0  0  0  0  0  0  0  0  0  0  0  0
   -2.1449    1.9195    2.6638 H   0  0  0  0  0  0  0  0  0  0  0  0
  1  2  1  0
  2  3  1  0
  3  4  2  0
  4  5  1  0
  5  6  2  0
  6  7  1  0
  7  8  2  0
  8  9  1  0
  9 10  2  0
  4 11  1  0
 11 12  1  0
 12 13  2  0
 13 14  1  0
 14 15  1  0
 15 16  1  0
 16 17  1  0
 17 18  1  0
 18 19  1  0
 18 20  1  0
 14 21  2  0
 21 22  1  0
  3 23  1  0
 23 24  2  0
 24 25  1  0
 25 26  2  0
 26 27  1  0
 27 28  2  0
 10  5  1  0
 22 11  2  0
 28 23  1  0
  1 29  1  0
  1 30  1  0
  1 31  1  0
  2 32  1  0
  2 33  1  0
  6 34  1  0
  7 35  1  0
  8 36  1  0
  9 37  1  0
 10 38  1  0
 12 39  1  0
 13 40  1  0
 16 41  1  0
 16 42  1  0
 17 43  1  0
 17 44  1  0
 19 45  1  0
 19 46  1  0
 19 47  1  0
 20 48  1  0
 20 49  1  0
 20 50  1  0
 21 51  1  0
 22 52  1  0
 24 53  1  0
 25 54  1  0
 26 55  1  0
 27 56  1  0
 28 57  1  0
M  END
