
     RDKit          3D

 29 31  0  0  0  0  0  0  0  0999 V2000
    5.3041    0.3951    0.9466 O   0  0  0  0  0  0  0  0  0  0  0  0
    4.1427    0.1295    0.6514 C   0  0  0  0  0  0  0  0  0  0  0  0
    3.7055   -0.1007   -0.7771 C   0  0  0  0  0  0  0  0  0  0  0  0
    2.2400    0.2597   -0.9713 C   0  0  0  0  0  0  0  0  0  0  0  0
    1.3916   -0.5433    0.0110 C   0  0  0  0  0  0  0  0  0  0  0  0
   -0.0394   -0.3093   -0.1045 N   0  0  0  0  0  0  0  0  0  0  0  0
   -0.9635   -1.3163   -0.0171 C   0  0  0  0  0  0  0  0  0  0  0  0
   -0.7800   -2.5171    0.0429 O   0  0  0  0  0  0  0  0  0  0  0  0
   -2.2789   -0.6807   -0.0161 C   0  0  0  0  0  0  0  0  0  0  0  0
   -3.5428   -1.2354    0.0296 C   0  0  0  0  0  0  0  0  0  0  0  0
   -4.6275   -0.3524    0.0235 C   0  0  0  0  0  0  0  0  0  0  0  0
   -4.4247    1.0429   -0.0245 C   0  0  0  0  0  0  0  0  0  0  0  0
   -3.1337    1.5794   -0.0675 C   0  0  0  0  0  0  0  0  0  0  0  0
   -2.0800    0.6866   -0.0643 C   0  0  0  0  0  0  0  0  0  0  0  0
   -0.6379    0.9215   -0.0918 C   0  0  0  0  0  0  0  0  0  0  0  0
   -0.1255    2.0241   -0.0834 O   0  0  0  0  0  0  0  0  0  0  0  0
    1.8370   -0.2587    1.4493 C   0  0  0  0  0  0  0  0  0  0  0  0
    1.0815   -0.2840    2.4191 O   0  0  0  0  0  0  0  0  0  0  0  0
    3.1844   -0.0307    1.6214 N   0  0  0  0  0  0  0  0  0  0  0  0
    4.3230    0.5216   -1.4337 H   0  0  0  0  0  0  0  0  0  0  0  0
    3.8890   -1.1515   -1.0267 H   0  0  0  0  0  0  0  0  0  0  0  0
    1.9343    0.0474   -2.0021 H   0  0  0  0  0  0  0  0  0  0  0  0
    2.1205    1.3373   -0.8125 H   0  0  0  0  0  0  0  0  0  0  0  0
    1.5711   -1.6140   -0.1543 H   0  0  0  0  0  0  0  0  0  0  0  0
   -3.6838   -2.3105    0.0722 H   0  0  0  0  0  0  0  0  0  0  0  0
   -5.6424   -0.7450    0.0605 H   0  0  0  0  0  0  0  0  0  0  0  0
   -5.2857    1.7093   -0.0236 H   0  0  0  0  0  0  0  0  0  0  0  0
   -2.9631    2.6506   -0.0980 H   0  0  0  0  0  0  0  0  0  0  0  0
    3.4840    0.1448    2.5711 H   0  0  0  0  0  0  0  0  0  0  0  0
  1  2  2  0
  2  3  1  0
  3  4  1  0
  4  5  1  0
  5  6  1  0
  6  7  1  0
  7  8  2  0
  7  9  1  0
  9 10  2  0
 10 11  1  0
 11 12  2  0
 12 13  1  0
 13 14  2  0
 14 15  1  0
 15 16  2  0
  5 17  1  0
 17 18  2  0
 17 19  1  0
 19  2  1  0
 15  6  1  0
 14  9  1  0
  3 20  1  0
  3 21  1  0
  4 22  1  0
  4 23  1  0
  5 24  1  0
 10 25  1  0
 11 26  1  0
 12 27  1  0
 13 28  1  0
 19 29  1  0
M  END
