
     RDKit          3D

 43 45  0  0  0  0  0  0  0  0999 V2000
   -1.9580   -0.6815   -2.9171 C   0  0  0  0  0  0  0  0  0  0  0  0
   -2.5394    0.0477   -1.7129 C   0  0  0  0  0  0  0  0  0  0  0  0
   -4.0191   -0.2914   -1.5451 C   0  0  0  0  0  0  0  0  0  0  0  0
   -2.4106    1.4690   -1.9020 O   0  0  0  0  0  0  0  0  0  0  0  0
   -1.6140    1.9408   -0.8082 C   0  0  0  0  0  0  0  0  0  0  0  0
   -0.1542    2.1741   -1.2707 C   0  0  0  0  0  0  0  0  0  0  0  0
    0.8333    2.1198   -0.2256 O   0  0  0  0  0  0  0  0  0  0  0  0
    0.7340    0.9247    0.5620 C   0  0  0  0  0  0  0  0  0  0  0  0
    1.0942   -0.3395   -0.2555 C   0  0  0  0  0  0  0  0  0  0  0  0
    2.4715   -0.2697   -0.6311 O   0  0  0  0  0  0  0  0  0  0  0  0
    3.0462   -1.4676   -1.5489 S   0  0  0  0  0  0  0  0  0  0  0  0
    4.6397   -1.0047   -1.7481 N   0  0  0  0  0  0  0  0  0  0  0  0
    3.0562   -2.6759   -0.7614 O   0  0  0  0  0  0  0  0  0  0  0  0
    2.4176   -1.3816   -2.8447 O   0  0  0  0  0  0  0  0  0  0  0  0
    1.5865    0.9447    1.7300 O   0  0  0  0  0  0  0  0  0  0  0  0
    0.8290    0.2665    2.7615 C   0  0  0  0  0  0  0  0  0  0  0  0
    1.5076   -1.0428    3.1498 C   0  0  0  0  0  0  0  0  0  0  0  0
    0.7519    1.1874    3.9810 C   0  0  0  0  0  0  0  0  0  0  0  0
   -0.5066   -0.0026    2.2705 O   0  0  0  0  0  0  0  0  0  0  0  0
   -0.6233    0.9558    1.2274 C   0  0  0  0  0  0  0  0  0  0  0  0
   -1.7665    0.8593    0.2483 C   0  0  0  0  0  0  0  0  0  0  0  0
   -1.8162   -0.3370   -0.5292 O   0  0  0  0  0  0  0  0  0  0  0  0
   -0.9046   -0.4213   -3.0617 H   0  0  0  0  0  0  0  0  0  0  0  0
   -2.0066   -1.7674   -2.7849 H   0  0  0  0  0  0  0  0  0  0  0  0
   -2.4824   -0.4067   -3.8384 H   0  0  0  0  0  0  0  0  0  0  0  0
   -4.4552    0.2548   -0.7016 H   0  0  0  0  0  0  0  0  0  0  0  0
   -4.5924   -0.0112   -2.4352 H   0  0  0  0  0  0  0  0  0  0  0  0
   -4.1601   -1.3591   -1.3472 H   0  0  0  0  0  0  0  0  0  0  0  0
   -2.0219    2.8898   -0.4422 H   0  0  0  0  0  0  0  0  0  0  0  0
    0.1320    1.4890   -2.0753 H   0  0  0  0  0  0  0  0  0  0  0  0
   -0.0884    3.1712   -1.7217 H   0  0  0  0  0  0  0  0  0  0  0  0
    0.5113   -0.4183   -1.1725 H   0  0  0  0  0  0  0  0  0  0  0  0
    0.9362   -1.2530    0.3222 H   0  0  0  0  0  0  0  0  0  0  0  0
    5.1251   -1.0198   -0.8534 H   0  0  0  0  0  0  0  0  0  0  0  0
    4.6910   -0.1078   -2.2266 H   0  0  0  0  0  0  0  0  0  0  0  0
    2.5358   -0.8702    3.4850 H   0  0  0  0  0  0  0  0  0  0  0  0
    0.9521   -1.5538    3.9435 H   0  0  0  0  0  0  0  0  0  0  0  0
    1.5602   -1.7369    2.3070 H   0  0  0  0  0  0  0  0  0  0  0  0
    0.1346    0.7466    4.7708 H   0  0  0  0  0  0  0  0  0  0  0  0
    1.7500    1.3986    4.3796 H   0  0  0  0  0  0  0  0  0  0  0  0
    0.3045    2.1531    3.7224 H   0  0  0  0  0  0  0  0  0  0  0  0
   -0.7575    1.9310    1.7226 H   0  0  0  0  0  0  0  0  0  0  0  0
   -2.7235    0.9375    0.7780 H   0  0  0  0  0  0  0  0  0  0  0  0
  1  2  1  0
  2  3  1  0
  2  4  1  0
  4  5  1  0
  5  6  1  0
  6  7  1  0
  7  8  1  0
  8  9  1  0
  9 10  1  0
 10 11  1  0
 11 12  1  0
 11 13  2  0
 11 14  2  0
  8 15  1  0
 15 16  1  0
 16 17  1  0
 16 18  1  0
 16 19  1  0
 19 20  1  0
 20 21  1  0
 21 22  1  0
 22  2  1  0
 21  5  1  0
 20  8  1  0
  1 23  1  0
  1 24  1  0
  1 25  1  0
  3 26  1  0
  3 27  1  0
  3 28  1  0
  5 29  1  0
  6 30  1  0
  6 31  1  0
  9 32  1  0
  9 33  1  0
 12 34  1  0
 12 35  1  0
 17 36  1  0
 17 37  1  0
 17 38  1  0
 18 39  1  0
 18 40  1  0
 18 41  1  0
 20 42  1  0
 21 43  1  0
M  END
