
     RDKit          3D

 44 45  0  0  0  0  0  0  0  0999 V2000
    4.4997   -1.5538    0.6448 C   0  0  0  0  0  0  0  0  0  0  0  0
    3.9415   -2.2978   -0.4304 O   0  0  0  0  0  0  0  0  0  0  0  0
    2.7971   -1.8103   -1.0005 C   0  0  0  0  0  0  0  0  0  0  0  0
    2.3020   -2.5817   -2.0518 C   0  0  0  0  0  0  0  0  0  0  0  0
    1.1431   -2.2012   -2.7214 C   0  0  0  0  0  0  0  0  0  0  0  0
    0.4714   -1.0418   -2.3384 C   0  0  0  0  0  0  0  0  0  0  0  0
    0.9428   -0.2400   -1.2799 C   0  0  0  0  0  0  0  0  0  0  0  0
    0.1583    1.0213   -0.8947 C   0  0  0  0  0  0  0  0  0  0  0  0
   -0.0088    1.7693   -2.1190 O   0  0  0  0  0  0  0  0  0  0  0  0
    0.8992    1.9770    0.0725 C   0  0  0  0  0  0  0  0  0  0  0  0
    0.0974    3.2421    0.3869 C   0  0  0  0  0  0  0  0  0  0  0  0
   -1.2977    2.9175    0.9052 C   0  0  0  0  0  0  0  0  0  0  0  0
   -2.0471    1.9904   -0.0466 C   0  0  0  0  0  0  0  0  0  0  0  0
   -1.2728    0.6873   -0.3560 C   0  0  0  0  0  0  0  0  0  0  0  0
   -1.2304   -0.2751    0.8647 C   0  0  0  0  0  0  0  0  0  0  0  0
   -2.5487   -0.5996    1.4474 N   0  0  0  0  0  0  0  0  0  0  0  0
   -2.3753   -1.3230    2.7102 C   0  0  0  0  0  0  0  0  0  0  0  0
   -3.3689   -1.3977    0.5329 C   0  0  0  0  0  0  0  0  0  0  0  0
    2.1190   -0.6464   -0.6201 C   0  0  0  0  0  0  0  0  0  0  0  0
    3.8088   -1.5076    1.4931 H   0  0  0  0  0  0  0  0  0  0  0  0
    4.7957   -0.5511    0.3194 H   0  0  0  0  0  0  0  0  0  0  0  0
    5.4020   -2.0749    0.9790 H   0  0  0  0  0  0  0  0  0  0  0  0
    2.8257   -3.4864   -2.3505 H   0  0  0  0  0  0  0  0  0  0  0  0
    0.7641   -2.8063   -3.5407 H   0  0  0  0  0  0  0  0  0  0  0  0
   -0.4318   -0.7578   -2.8776 H   0  0  0  0  0  0  0  0  0  0  0  0
    0.8236    1.6963   -2.6180 H   0  0  0  0  0  0  0  0  0  0  0  0
    1.8545    2.2907   -0.3688 H   0  0  0  0  0  0  0  0  0  0  0  0
    1.1333    1.4751    1.0185 H   0  0  0  0  0  0  0  0  0  0  0  0
    0.0177    3.8635   -0.5134 H   0  0  0  0  0  0  0  0  0  0  0  0
    0.6354    3.8397    1.1318 H   0  0  0  0  0  0  0  0  0  0  0  0
   -1.8646    3.8471    1.0312 H   0  0  0  0  0  0  0  0  0  0  0  0
   -1.2259    2.4584    1.8979 H   0  0  0  0  0  0  0  0  0  0  0  0
   -3.0373    1.7677    0.3660 H   0  0  0  0  0  0  0  0  0  0  0  0
   -2.2334    2.5267   -0.9862 H   0  0  0  0  0  0  0  0  0  0  0  0
   -1.8284    0.1927   -1.1633 H   0  0  0  0  0  0  0  0  0  0  0  0
   -0.7235   -1.2082    0.5885 H   0  0  0  0  0  0  0  0  0  0  0  0
   -0.6162    0.1863    1.6467 H   0  0  0  0  0  0  0  0  0  0  0  0
   -3.3468   -1.5301    3.1727 H   0  0  0  0  0  0  0  0  0  0  0  0
   -1.8132   -0.7157    3.4285 H   0  0  0  0  0  0  0  0  0  0  0  0
   -1.8475   -2.2739    2.5731 H   0  0  0  0  0  0  0  0  0  0  0  0
   -3.6195   -0.8345   -0.3711 H   0  0  0  0  0  0  0  0  0  0  0  0
   -2.8723   -2.3290    0.2377 H   0  0  0  0  0  0  0  0  0  0  0  0
   -4.3263   -1.6544    1.0010 H   0  0  0  0  0  0  0  0  0  0  0  0
    2.5041   -0.0509    0.1988 H   0  0  0  0  0  0  0  0  0  0  0  0
  1  2  1  0
  2  3  1  0
  3  4  1  0
  4  5  2  0
  5  6  1  0
  6  7  2  0
  7  8  1  0
  8  9  1  0
  8 10  1  0
 10 11  1  0
 11 12  1  0
 12 13  1  0
 13 14  1  0
 14 15  1  0
 15 16  1  0
 16 17  1  0
 16 18  1  0
  7 19  1  0
 19  3  2  0
 14  8  1  0
  1 20  1  0
  1 21  1  0
  1 22  1  0
  4 23  1  0
  5 24  1  0
  6 25  1  0
  9 26  1  0
 10 27  1  0
 10 28  1  0
 11 29  1  0
 11 30  1  0
 12 31  1  0
 12 32  1  0
 13 33  1  0
 13 34  1  0
 14 35  1  0
 15 36  1  0
 15 37  1  0
 17 38  1  0
 17 39  1  0
 17 40  1  0
 18 41  1  0
 18 42  1  0
 18 43  1  0
 19 44  1  0
M  END
