
     RDKit          3D

 66 69  0  0  0  0  0  0  0  0999 V2000
    3.5012    3.9523   -0.0111 C   0  0  0  0  0  0  0  0  0  0  0  0
    4.8477    3.7060    0.6591 C   0  0  0  0  0  0  0  0  0  0  0  0
    4.8004    2.5712    1.6823 C   0  0  0  0  0  0  0  0  0  0  0  0
    4.4881    1.2328    1.0467 C   0  0  0  0  0  0  0  0  0  0  0  0
    3.3308    0.6792    1.2576 N   0  0  0  0  0  0  0  0  0  0  0  0
    3.1655   -0.5389    0.5919 C   0  0  0  0  0  0  0  0  0  0  0  0
    4.1230   -1.0858   -0.2093 C   0  0  0  0  0  0  0  0  0  0  0  0
    5.3821   -0.4760   -0.4314 C   0  0  0  0  0  0  0  0  0  0  0  0
    6.2794   -0.9177   -1.1393 O   0  0  0  0  0  0  0  0  0  0  0  0
    5.4960    0.7135    0.2519 N   0  0  0  0  0  0  0  0  0  0  0  0
    3.5915   -2.2464   -0.6745 N   0  0  0  0  0  0  0  0  0  0  0  0
    4.2164   -3.1911   -1.5693 C   0  0  0  0  0  0  0  0  0  0  0  0
    2.3262   -2.4641   -0.2439 N   0  0  0  0  0  0  0  0  0  0  0  0
    2.0665   -1.4249    0.5785 C   0  0  0  0  0  0  0  0  0  0  0  0
    0.7894   -1.2856    1.2663 C   0  0  0  0  0  0  0  0  0  0  0  0
    0.0081   -0.1448    1.0310 C   0  0  0  0  0  0  0  0  0  0  0  0
   -1.2308   -0.0055    1.6658 C   0  0  0  0  0  0  0  0  0  0  0  0
   -1.6966   -0.9762    2.5563 C   0  0  0  0  0  0  0  0  0  0  0  0
   -0.9159   -2.1044    2.8055 C   0  0  0  0  0  0  0  0  0  0  0  0
    0.3107   -2.2678    2.1506 C   0  0  0  0  0  0  0  0  0  0  0  0
    1.0852   -3.3548    2.4714 O   0  0  0  0  0  0  0  0  0  0  0  0
    0.5680   -4.5424    1.8618 C   0  0  0  0  0  0  0  0  0  0  0  0
    1.6164   -5.6299    1.9865 C   0  0  0  0  0  0  0  0  0  0  0  0
   -2.2217    1.4235    1.3148 S   0  0  0  0  0  0  0  0  0  0  0  0
   -3.4682    1.3076    2.0451 O   0  0  0  0  0  0  0  0  0  0  0  0
   -1.3768    2.5898    1.4679 O   0  0  0  0  0  0  0  0  0  0  0  0
   -2.5788    1.2381   -0.3454 N   0  0  0  0  0  0  0  0  0  0  0  0
   -3.2391   -0.0562   -0.7174 C   0  0  0  0  0  0  0  0  0  0  0  0
   -4.1690    0.0953   -1.9340 C   0  0  0  0  0  0  0  0  0  0  0  0
   -5.2765    1.0278   -1.6615 N   0  0  0  0  0  0  0  0  0  0  0  0
   -6.0731    1.2815   -2.8663 C   0  0  0  0  0  0  0  0  0  0  0  0
   -7.4357    1.8813   -2.5353 C   0  0  0  0  0  0  0  0  0  0  0  0
   -4.7982    2.2554   -0.9896 C   0  0  0  0  0  0  0  0  0  0  0  0
   -3.2660    2.4270   -0.9400 C   0  0  0  0  0  0  0  0  0  0  0  0
    3.5503    4.8465   -0.6401 H   0  0  0  0  0  0  0  0  0  0  0  0
    3.2156    3.1099   -0.6489 H   0  0  0  0  0  0  0  0  0  0  0  0
    2.7158    4.0993    0.7372 H   0  0  0  0  0  0  0  0  0  0  0  0
    5.6017    3.5011   -0.1103 H   0  0  0  0  0  0  0  0  0  0  0  0
    5.1539    4.6247    1.1743 H   0  0  0  0  0  0  0  0  0  0  0  0
    5.7714    2.4917    2.1850 H   0  0  0  0  0  0  0  0  0  0  0  0
    4.0511    2.7901    2.4537 H   0  0  0  0  0  0  0  0  0  0  0  0
    6.3723    1.1994    0.1379 H   0  0  0  0  0  0  0  0  0  0  0  0
    4.3428   -2.7098   -2.5411 H   0  0  0  0  0  0  0  0  0  0  0  0
    5.1821   -3.4841   -1.1504 H   0  0  0  0  0  0  0  0  0  0  0  0
    3.5785   -4.0745   -1.6663 H   0  0  0  0  0  0  0  0  0  0  0  0
    0.3564    0.6290    0.3488 H   0  0  0  0  0  0  0  0  0  0  0  0
   -2.6527   -0.8585    3.0623 H   0  0  0  0  0  0  0  0  0  0  0  0
   -1.2550   -2.8501    3.5197 H   0  0  0  0  0  0  0  0  0  0  0  0
   -0.3419   -4.8589    2.3850 H   0  0  0  0  0  0  0  0  0  0  0  0
    0.3333   -4.3819    0.8019 H   0  0  0  0  0  0  0  0  0  0  0  0
    1.2510   -6.5734    1.5692 H   0  0  0  0  0  0  0  0  0  0  0  0
    1.8888   -5.7840    3.0359 H   0  0  0  0  0  0  0  0  0  0  0  0
    2.5323   -5.3427    1.4621 H   0  0  0  0  0  0  0  0  0  0  0  0
   -2.4511   -0.7780   -0.9655 H   0  0  0  0  0  0  0  0  0  0  0  0
   -3.8164   -0.4605    0.1250 H   0  0  0  0  0  0  0  0  0  0  0  0
   -4.5796   -0.8921   -2.1775 H   0  0  0  0  0  0  0  0  0  0  0  0
   -3.5843    0.4300   -2.8022 H   0  0  0  0  0  0  0  0  0  0  0  0
   -6.2648    0.3326   -3.3843 H   0  0  0  0  0  0  0  0  0  0  0  0
   -5.5334    1.9270   -3.5701 H   0  0  0  0  0  0  0  0  0  0  0  0
   -7.3531    2.8907   -2.1226 H   0  0  0  0  0  0  0  0  0  0  0  0
   -8.0474    1.9458   -3.4418 H   0  0  0  0  0  0  0  0  0  0  0  0
   -7.9767    1.2603   -1.8138 H   0  0  0  0  0  0  0  0  0  0  0  0
   -5.1823    2.2300    0.0374 H   0  0  0  0  0  0  0  0  0  0  0  0
   -5.2181    3.1574   -1.4505 H   0  0  0  0  0  0  0  0  0  0  0  0
   -3.0178    3.3414   -0.3915 H   0  0  0  0  0  0  0  0  0  0  0  0
   -2.8690    2.5712   -1.9526 H   0  0  0  0  0  0  0  0  0  0  0  0
  1  2  1  0
  2  3  1  0
  3  4  1  0
  4  5  2  0
  5  6  1  0
  6  7  2  0
  7  8  1  0
  8  9  2  0
  8 10  1  0
  7 11  1  0
 11 12  1  0
 11 13  1  0
 13 14  2  0
 14 15  1  0
 15 16  1  0
 16 17  2  0
 17 18  1  0
 18 19  2  0
 19 20  1  0
 20 21  1  0
 21 22  1  0
 22 23  1  0
 17 24  1  0
 24 25  2  0
 24 26  2  0
 24 27  1  0
 27 28  1  0
 28 29  1  0
 29 30  1  0
 30 31  1  0
 31 32  1  0
 30 33  1  0
 33 34  1  0
 10  4  1  0
 20 15  2  0
 34 27  1  0
 14  6  1  0
  1 35  1  0
  1 36  1  0
  1 37  1  0
  2 38  1  0
  2 39  1  0
  3 40  1  0
  3 41  1  0
 10 42  1  0
 12 43  1  0
 12 44  1  0
 12 45  1  0
 16 46  1  0
 18 47  1  0
 19 48  1  0
 22 49  1  0
 22 50  1  0
 23 51  1  0
 23 52  1  0
 23 53  1  0
 28 54  1  0
 28 55  1  0
 29 56  1  0
 29 57  1  0
 31 58  1  0
 31 59  1  0
 32 60  1  0
 32 61  1  0
 32 62  1  0
 33 63  1  0
 33 64  1  0
 34 65  1  0
 34 66  1  0
M  END
