
     RDKit          3D

 29 32  0  0  0  0  0  0  0  0999 V2000
   -2.9440   -0.9530    0.1841 C   0  0  0  0  0  0  0  0  0  0  0  0
   -2.2319   -0.7438    1.4566 N   0  0  0  0  0  0  0  0  0  0  0  0
   -1.4967    0.5257    1.3286 C   0  0  0  0  0  0  0  0  0  0  0  0
   -2.4337    1.3482    0.4487 C   0  0  0  0  0  0  0  0  0  0  0  0
   -2.7216    0.3217   -0.6415 C   0  0  0  0  0  0  0  0  0  0  0  0
   -1.4831    0.1986   -1.5582 C   0  0  0  0  0  0  0  0  0  0  0  0
   -0.1824    0.1154   -0.7865 C   0  0  0  0  0  0  0  0  0  0  0  0
    1.0275   -0.1206   -1.4481 C   0  0  0  0  0  0  0  0  0  0  0  0
    2.2291   -0.1979   -0.7548 C   0  0  0  0  0  0  0  0  0  0  0  0
    3.3710   -0.4305   -1.4325 N   0  0  0  0  0  0  0  0  0  0  0  0
    4.5016   -0.4976   -0.6974 C   0  0  0  0  0  0  0  0  0  0  0  0
    4.4999   -0.3390    0.6729 C   0  0  0  0  0  0  0  0  0  0  0  0
    3.3676   -0.1053    1.3703 N   0  0  0  0  0  0  0  0  0  0  0  0
    2.2276   -0.0332    0.6546 C   0  0  0  0  0  0  0  0  0  0  0  0
    1.0261    0.2061    1.3090 C   0  0  0  0  0  0  0  0  0  0  0  0
   -0.1810    0.2960    0.6067 C   0  0  0  0  0  0  0  0  0  0  0  0
   -2.5965   -1.8550   -0.3306 H   0  0  0  0  0  0  0  0  0  0  0  0
   -4.0092   -1.0810    0.4051 H   0  0  0  0  0  0  0  0  0  0  0  0
   -1.5813   -1.5078    1.6346 H   0  0  0  0  0  0  0  0  0  0  0  0
   -1.3398    1.0015    2.3017 H   0  0  0  0  0  0  0  0  0  0  0  0
   -3.3521    1.6144    0.9872 H   0  0  0  0  0  0  0  0  0  0  0  0
   -1.9811    2.2683    0.0627 H   0  0  0  0  0  0  0  0  0  0  0  0
   -3.6057    0.5764   -1.2346 H   0  0  0  0  0  0  0  0  0  0  0  0
   -1.5862   -0.6832   -2.2016 H   0  0  0  0  0  0  0  0  0  0  0  0
   -1.4346    1.0833   -2.2056 H   0  0  0  0  0  0  0  0  0  0  0  0
    1.0420   -0.2512   -2.5278 H   0  0  0  0  0  0  0  0  0  0  0  0
    5.4168   -0.6846   -1.2470 H   0  0  0  0  0  0  0  0  0  0  0  0
    5.4135   -0.3953    1.2531 H   0  0  0  0  0  0  0  0  0  0  0  0
    1.0379    0.3236    2.3904 H   0  0  0  0  0  0  0  0  0  0  0  0
  1  2  1  0
  2  3  1  0
  3  4  1  0
  4  5  1  0
  5  6  1  0
  6  7  1  0
  7  8  1  0
  8  9  2  0
  9 10  1  0
 10 11  2  0
 11 12  1  0
 12 13  2  0
 13 14  1  0
 14 15  2  0
 15 16  1  0
  5  1  1  0
 16  7  2  0
 16  3  1  0
 14  9  1  0
  1 17  1  0
  1 18  1  0
  2 19  1  0
  3 20  1  0
  4 21  1  0
  4 22  1  0
  5 23  1  0
  6 24  1  0
  6 25  1  0
  8 26  1  0
 11 27  1  0
 12 28  1  0
 15 29  1  0
M  END
