
     RDKit          3D

 47 48  0  0  0  0  0  0  0  0999 V2000
    5.5971   -0.5207   -1.6343 C   0  0  0  0  0  0  0  0  0  0  0  0
    5.0197   -0.0916   -0.4078 O   0  0  0  0  0  0  0  0  0  0  0  0
    3.6560   -0.0022   -0.3653 C   0  0  0  0  0  0  0  0  0  0  0  0
    2.7801   -0.3001   -1.4065 C   0  0  0  0  0  0  0  0  0  0  0  0
    1.3988   -0.1638   -1.2247 C   0  0  0  0  0  0  0  0  0  0  0  0
    0.8657    0.2745   -0.0008 C   0  0  0  0  0  0  0  0  0  0  0  0
   -0.6561    0.3903    0.1622 C   0  0  0  0  0  0  0  0  0  0  0  0
   -1.0829    1.7920    0.7204 C   0  0  0  0  0  0  0  0  0  0  0  0
   -1.3016    2.8360   -0.3128 N   0  0  0  0  0  0  0  0  0  0  0  0
   -0.0549    3.2559   -0.9548 C   0  0  0  0  0  0  0  0  0  0  0  0
   -1.9498    4.0027    0.2972 C   0  0  0  0  0  0  0  0  0  0  0  0
   -1.2549   -0.7982    1.0136 C   0  0  0  0  0  0  0  0  0  0  0  0
   -0.9794   -0.5573    2.4073 O   0  0  0  0  0  0  0  0  0  0  0  0
   -2.8085   -0.8518    0.8934 C   0  0  0  0  0  0  0  0  0  0  0  0
   -3.3024   -1.9586   -0.0334 C   0  0  0  0  0  0  0  0  0  0  0  0
   -2.8747   -3.3389    0.4586 C   0  0  0  0  0  0  0  0  0  0  0  0
   -1.5000   -3.3357    1.1243 C   0  0  0  0  0  0  0  0  0  0  0  0
   -0.6411   -2.1740    0.6302 C   0  0  0  0  0  0  0  0  0  0  0  0
    1.7578    0.5682    1.0393 C   0  0  0  0  0  0  0  0  0  0  0  0
    3.1366    0.4315    0.8548 C   0  0  0  0  0  0  0  0  0  0  0  0
    5.3672    0.1785   -2.4451 H   0  0  0  0  0  0  0  0  0  0  0  0
    6.6837   -0.5347   -1.5054 H   0  0  0  0  0  0  0  0  0  0  0  0
    5.2787   -1.5377   -1.8860 H   0  0  0  0  0  0  0  0  0  0  0  0
    3.1345   -0.6404   -2.3736 H   0  0  0  0  0  0  0  0  0  0  0  0
    0.7369   -0.4016   -2.0557 H   0  0  0  0  0  0  0  0  0  0  0  0
   -1.0988    0.2926   -0.8403 H   0  0  0  0  0  0  0  0  0  0  0  0
   -0.3801    2.1585    1.4783 H   0  0  0  0  0  0  0  0  0  0  0  0
   -2.0337    1.6748    1.2518 H   0  0  0  0  0  0  0  0  0  0  0  0
   -0.2355    4.0971   -1.6346 H   0  0  0  0  0  0  0  0  0  0  0  0
    0.3517    2.4598   -1.5823 H   0  0  0  0  0  0  0  0  0  0  0  0
    0.7048    3.5652   -0.2284 H   0  0  0  0  0  0  0  0  0  0  0  0
   -2.1614    4.7664   -0.4597 H   0  0  0  0  0  0  0  0  0  0  0  0
   -2.9160    3.7248    0.7330 H   0  0  0  0  0  0  0  0  0  0  0  0
   -1.3324    4.4549    1.0820 H   0  0  0  0  0  0  0  0  0  0  0  0
   -0.0584   -0.8216    2.5764 H   0  0  0  0  0  0  0  0  0  0  0  0
   -3.2145    0.0947    0.5223 H   0  0  0  0  0  0  0  0  0  0  0  0
   -3.2578   -0.9971    1.8851 H   0  0  0  0  0  0  0  0  0  0  0  0
   -2.9100   -1.7878   -1.0437 H   0  0  0  0  0  0  0  0  0  0  0  0
   -4.3948   -1.9228   -0.1156 H   0  0  0  0  0  0  0  0  0  0  0  0
   -2.8761   -4.0318   -0.3915 H   0  0  0  0  0  0  0  0  0  0  0  0
   -3.6121   -3.7278    1.1713 H   0  0  0  0  0  0  0  0  0  0  0  0
   -1.6189   -3.2660    2.2126 H   0  0  0  0  0  0  0  0  0  0  0  0
   -0.9963   -4.2891    0.9278 H   0  0  0  0  0  0  0  0  0  0  0  0
   -0.5394   -2.2596   -0.4588 H   0  0  0  0  0  0  0  0  0  0  0  0
    0.3600   -2.2864    1.0633 H   0  0  0  0  0  0  0  0  0  0  0  0
    1.3995    0.9114    2.0066 H   0  0  0  0  0  0  0  0  0  0  0  0
    3.8140    0.6677    1.6722 H   0  0  0  0  0  0  0  0  0  0  0  0
  1  2  1  0
  2  3  1  0
  3  4  1  0
  4  5  2  0
  5  6  1  0
  6  7  1  0
  7  8  1  0
  8  9  1  0
  9 10  1  0
  9 11  1  0
  7 12  1  0
 12 13  1  0
 12 14  1  0
 14 15  1  0
 15 16  1  0
 16 17  1  0
 17 18  1  0
  6 19  2  0
 19 20  1  0
 20  3  2  0
 18 12  1  0
  1 21  1  0
  1 22  1  0
  1 23  1  0
  4 24  1  0
  5 25  1  0
  7 26  1  0
  8 27  1  0
  8 28  1  0
 10 29  1  0
 10 30  1  0
 10 31  1  0
 11 32  1  0
 11 33  1  0
 11 34  1  0
 13 35  1  0
 14 36  1  0
 14 37  1  0
 15 38  1  0
 15 39  1  0
 16 40  1  0
 16 41  1  0
 17 42  1  0
 17 43  1  0
 18 44  1  0
 18 45  1  0
 19 46  1  0
 20 47  1  0
M  END
