
     RDKit          3D

 71 72  0  0  0  0  0  0  0  0999 V2000
    7.0735    2.5347   -3.5450 C   0  0  0  0  0  0  0  0  0  0  0  0
    6.6315    2.5942   -2.1972 O   0  0  0  0  0  0  0  0  0  0  0  0
    5.9363    1.5157   -1.7073 C   0  0  0  0  0  0  0  0  0  0  0  0
    5.6070    0.3810   -2.4558 C   0  0  0  0  0  0  0  0  0  0  0  0
    4.8925   -0.6699   -1.8738 C   0  0  0  0  0  0  0  0  0  0  0  0
    4.5014   -0.6066   -0.5332 C   0  0  0  0  0  0  0  0  0  0  0  0
    3.7233   -1.7407    0.0955 C   0  0  0  0  0  0  0  0  0  0  0  0
    2.2089   -1.4677    0.1946 C   0  0  0  0  0  0  0  0  0  0  0  0
    1.8591   -0.5009    1.2446 N   0  0  0  0  0  0  0  0  0  0  0  0
    1.8205   -1.0905    2.5770 C   0  0  0  0  0  0  0  0  0  0  0  0
    0.6979    0.3388    0.9384 C   0  0  0  0  0  0  0  0  0  0  0  0
   -0.7199   -0.2298    1.1334 C   0  0  0  0  0  0  0  0  0  0  0  0
   -1.0773   -1.3838    0.1873 C   0  0  0  0  0  0  0  0  0  0  0  0
   -2.5914   -1.8033    0.1574 C   0  0  0  0  0  0  0  0  0  0  0  0
   -2.6658   -3.0433   -0.6846 C   0  0  0  0  0  0  0  0  0  0  0  0
   -2.6979   -4.0050   -1.3353 N   0  0  0  0  0  0  0  0  0  0  0  0
   -3.3736   -0.6470   -0.5312 C   0  0  0  0  0  0  0  0  0  0  0  0
   -3.3510   -0.5079   -1.9325 C   0  0  0  0  0  0  0  0  0  0  0  0
   -4.0162    0.5406   -2.5777 C   0  0  0  0  0  0  0  0  0  0  0  0
   -4.7182    1.4938   -1.8413 C   0  0  0  0  0  0  0  0  0  0  0  0
   -5.3976    2.5537   -2.3868 O   0  0  0  0  0  0  0  0  0  0  0  0
   -5.3939    2.6812   -3.8013 C   0  0  0  0  0  0  0  0  0  0  0  0
   -4.7462    1.3920   -0.4397 C   0  0  0  0  0  0  0  0  0  0  0  0
   -5.4433    2.3753    0.2192 O   0  0  0  0  0  0  0  0  0  0  0  0
   -5.6058    2.2505    1.6240 C   0  0  0  0  0  0  0  0  0  0  0  0
   -4.0713    0.3377    0.1972 C   0  0  0  0  0  0  0  0  0  0  0  0
   -3.1279   -2.1853    1.6004 C   0  0  0  0  0  0  0  0  0  0  0  0
   -4.5889   -2.6786    1.5972 C   0  0  0  0  0  0  0  0  0  0  0  0
   -2.2762   -3.2462    2.3244 C   0  0  0  0  0  0  0  0  0  0  0  0
    4.8303    0.5322    0.2166 C   0  0  0  0  0  0  0  0  0  0  0  0
    5.5374    1.5955   -0.3588 C   0  0  0  0  0  0  0  0  0  0  0  0
    5.8910    2.7423    0.3103 O   0  0  0  0  0  0  0  0  0  0  0  0
    5.3742    2.9181    1.6214 C   0  0  0  0  0  0  0  0  0  0  0  0
    7.6181    3.4594   -3.7595 H   0  0  0  0  0  0  0  0  0  0  0  0
    6.2262    2.4811   -4.2365 H   0  0  0  0  0  0  0  0  0  0  0  0
    7.7649    1.6997   -3.6988 H   0  0  0  0  0  0  0  0  0  0  0  0
    5.8893    0.2830   -3.4982 H   0  0  0  0  0  0  0  0  0  0  0  0
    4.6459   -1.5392   -2.4793 H   0  0  0  0  0  0  0  0  0  0  0  0
    4.1547   -1.9793    1.0750 H   0  0  0  0  0  0  0  0  0  0  0  0
    3.8690   -2.6456   -0.5093 H   0  0  0  0  0  0  0  0  0  0  0  0
    1.8685   -1.1113   -0.7864 H   0  0  0  0  0  0  0  0  0  0  0  0
    1.6989   -2.4214    0.3732 H   0  0  0  0  0  0  0  0  0  0  0  0
    1.6042   -0.3269    3.3324 H   0  0  0  0  0  0  0  0  0  0  0  0
    2.7908   -1.5203    2.8454 H   0  0  0  0  0  0  0  0  0  0  0  0
    1.0677   -1.8810    2.6601 H   0  0  0  0  0  0  0  0  0  0  0  0
    0.7890    0.7356   -0.0813 H   0  0  0  0  0  0  0  0  0  0  0  0
    0.7734    1.2273    1.5801 H   0  0  0  0  0  0  0  0  0  0  0  0
   -1.4111    0.6043    0.9735 H   0  0  0  0  0  0  0  0  0  0  0  0
   -0.8550   -0.5354    2.1761 H   0  0  0  0  0  0  0  0  0  0  0  0
   -0.7531   -1.1161   -0.8285 H   0  0  0  0  0  0  0  0  0  0  0  0
   -0.4769   -2.2586    0.4602 H   0  0  0  0  0  0  0  0  0  0  0  0
   -2.8075   -1.2142   -2.5601 H   0  0  0  0  0  0  0  0  0  0  0  0
   -3.9610    0.5821   -3.6607 H   0  0  0  0  0  0  0  0  0  0  0  0
   -5.9815    3.5676   -4.0587 H   0  0  0  0  0  0  0  0  0  0  0  0
   -5.8698    1.8176   -4.2776 H   0  0  0  0  0  0  0  0  0  0  0  0
   -4.3786    2.8343   -4.1816 H   0  0  0  0  0  0  0  0  0  0  0  0
   -4.6442    2.3394    2.1398 H   0  0  0  0  0  0  0  0  0  0  0  0
   -6.2406    3.0753    1.9622 H   0  0  0  0  0  0  0  0  0  0  0  0
   -6.1109    1.3144    1.8846 H   0  0  0  0  0  0  0  0  0  0  0  0
   -4.0779    0.2928    1.2791 H   0  0  0  0  0  0  0  0  0  0  0  0
   -3.0933   -1.2952    2.2396 H   0  0  0  0  0  0  0  0  0  0  0  0
   -4.9434   -2.8175    2.6250 H   0  0  0  0  0  0  0  0  0  0  0  0
   -4.6915   -3.6409    1.0851 H   0  0  0  0  0  0  0  0  0  0  0  0
   -5.2673   -1.9682    1.1184 H   0  0  0  0  0  0  0  0  0  0  0  0
   -2.6912   -3.4552    3.3171 H   0  0  0  0  0  0  0  0  0  0  0  0
   -1.2486   -2.9081    2.4787 H   0  0  0  0  0  0  0  0  0  0  0  0
   -2.2475   -4.1928    1.7758 H   0  0  0  0  0  0  0  0  0  0  0  0
    4.5134    0.5657    1.2544 H   0  0  0  0  0  0  0  0  0  0  0  0
    5.7888    2.1748    2.3102 H   0  0  0  0  0  0  0  0  0  0  0  0
    4.2792    2.8958    1.6251 H   0  0  0  0  0  0  0  0  0  0  0  0
    5.6864    3.9060    1.9737 H   0  0  0  0  0  0  0  0  0  0  0  0
  1  2  1  0
  2  3  1  0
  3  4  1  0
  4  5  2  0
  5  6  1  0
  6  7  1  0
  7  8  1  0
  8  9  1  0
  9 10  1  0
  9 11  1  0
 11 12  1  0
 12 13  1  0
 13 14  1  0
 14 15  1  0
 15 16  3  0
 14 17  1  0
 17 18  1  0
 18 19  2  0
 19 20  1  0
 20 21  1  0
 21 22  1  0
 20 23  2  0
 23 24  1  0
 24 25  1  0
 23 26  1  0
 14 27  1  0
 27 28  1  0
 27 29  1  0
  6 30  2  0
 30 31  1  0
 31 32  1  0
 32 33  1  0
 31  3  2  0
 26 17  2  0
  1 34  1  0
  1 35  1  0
  1 36  1  0
  4 37  1  0
  5 38  1  0
  7 39  1  0
  7 40  1  0
  8 41  1  0
  8 42  1  0
 10 43  1  0
 10 44  1  0
 10 45  1  0
 11 46  1  0
 11 47  1  0
 12 48  1  0
 12 49  1  0
 13 50  1  0
 13 51  1  0
 18 52  1  0
 19 53  1  0
 22 54  1  0
 22 55  1  0
 22 56  1  0
 25 57  1  0
 25 58  1  0
 25 59  1  0
 26 60  1  0
 27 61  1  0
 28 62  1  0
 28 63  1  0
 28 64  1  0
 29 65  1  0
 29 66  1  0
 29 67  1  0
 30 68  1  0
 33 69  1  0
 33 70  1  0
 33 71  1  0
M  END
