
     RDKit          3D

 39 41  0  0  0  0  0  0  0  0999 V2000
   -1.4480    3.3180    2.3033 C   0  0  0  0  0  0  0  0  0  0  0  0
   -1.0459    2.9145    0.9083 C   0  0  0  0  0  0  0  0  0  0  0  0
   -0.1781    3.5330    0.2915 O   0  0  0  0  0  0  0  0  0  0  0  0
   -1.7204    1.6959    0.3108 C   0  0  0  0  0  0  0  0  0  0  0  0
   -1.0871    0.3929    0.8344 C   0  0  0  0  0  0  0  0  0  0  0  0
   -1.9061   -0.8681    0.5476 C   0  0  0  0  0  0  0  0  0  0  0  0
   -1.8266   -1.9481    1.4456 C   0  0  0  0  0  0  0  0  0  0  0  0
   -2.5482   -3.1218    1.2211 C   0  0  0  0  0  0  0  0  0  0  0  0
   -3.3568   -3.2374    0.0939 C   0  0  0  0  0  0  0  0  0  0  0  0
   -3.4409   -2.1814   -0.8102 C   0  0  0  0  0  0  0  0  0  0  0  0
   -2.7195   -1.0059   -0.5871 C   0  0  0  0  0  0  0  0  0  0  0  0
    0.3726    0.2253    0.4185 C   0  0  0  0  0  0  0  0  0  0  0  0
    0.8052    0.1366   -0.8514 C   0  0  0  0  0  0  0  0  0  0  0  0
   -0.0826    0.1467   -1.9087 O   0  0  0  0  0  0  0  0  0  0  0  0
    2.2291   -0.0053   -1.1657 C   0  0  0  0  0  0  0  0  0  0  0  0
    2.7588    0.0221   -2.4631 C   0  0  0  0  0  0  0  0  0  0  0  0
    4.1334   -0.1389   -2.6768 C   0  0  0  0  0  0  0  0  0  0  0  0
    4.9971   -0.3179   -1.5972 C   0  0  0  0  0  0  0  0  0  0  0  0
    4.4897   -0.3203   -0.3016 C   0  0  0  0  0  0  0  0  0  0  0  0
    3.1182   -0.1555   -0.1063 C   0  0  0  0  0  0  0  0  0  0  0  0
    2.6714   -0.1157    1.2236 O   0  0  0  0  0  0  0  0  0  0  0  0
    1.3480    0.1527    1.5378 C   0  0  0  0  0  0  0  0  0  0  0  0
    1.0011    0.2903    2.7074 O   0  0  0  0  0  0  0  0  0  0  0  0
   -1.0838    2.5836    3.0246 H   0  0  0  0  0  0  0  0  0  0  0  0
   -1.0146    4.2938    2.5403 H   0  0  0  0  0  0  0  0  0  0  0  0
   -2.5359    3.4004    2.3646 H   0  0  0  0  0  0  0  0  0  0  0  0
   -2.7855    1.7450    0.5705 H   0  0  0  0  0  0  0  0  0  0  0  0
   -1.6724    1.7852   -0.7799 H   0  0  0  0  0  0  0  0  0  0  0  0
   -1.1401    0.4935    1.9264 H   0  0  0  0  0  0  0  0  0  0  0  0
   -1.1993   -1.8793    2.3336 H   0  0  0  0  0  0  0  0  0  0  0  0
   -2.4777   -3.9451    1.9273 H   0  0  0  0  0  0  0  0  0  0  0  0
   -3.9188   -4.1508   -0.0815 H   0  0  0  0  0  0  0  0  0  0  0  0
   -4.0671   -2.2728   -1.6940 H   0  0  0  0  0  0  0  0  0  0  0  0
   -2.7941   -0.2071   -1.3209 H   0  0  0  0  0  0  0  0  0  0  0  0
    0.2493   -0.4643   -2.5884 H   0  0  0  0  0  0  0  0  0  0  0  0
    2.1253    0.1931   -3.3292 H   0  0  0  0  0  0  0  0  0  0  0  0
    4.5311   -0.1133   -3.6889 H   0  0  0  0  0  0  0  0  0  0  0  0
    6.0644   -0.4378   -1.7651 H   0  0  0  0  0  0  0  0  0  0  0  0
    5.1549   -0.4358    0.5494 H   0  0  0  0  0  0  0  0  0  0  0  0
  1  2  1  0
  2  3  2  0
  2  4  1  0
  4  5  1  0
  5  6  1  0
  6  7  2  0
  7  8  1  0
  8  9  2  0
  9 10  1  0
 10 11  2  0
  5 12  1  0
 12 13  2  0
 13 14  1  0
 13 15  1  0
 15 16  2  0
 16 17  1  0
 17 18  2  0
 18 19  1  0
 19 20  2  0
 20 21  1  0
 21 22  1  0
 22 23  2  0
 11  6  1  0
 22 12  1  0
 20 15  1  0
  1 24  1  0
  1 25  1  0
  1 26  1  0
  4 27  1  0
  4 28  1  0
  5 29  1  0
  7 30  1  0
  8 31  1  0
  9 32  1  0
 10 33  1  0
 11 34  1  0
 14 35  1  0
 16 36  1  0
 17 37  1  0
 18 38  1  0
 19 39  1  0
M  END
